# generated using pymatgen
data_V8NiH16C20N4O13
_symmetry_space_group_name_H-M   'P 1'
_cell_length_a   16.97383114
_cell_length_b   16.97346874
_cell_length_c   14.82051836
_cell_angle_alpha   90.00034998
_cell_angle_beta   89.99917995
_cell_angle_gamma   89.99846451
_symmetry_Int_Tables_number   1
_chemical_formula_structural   V8NiH16C20N4O13
_chemical_formula_sum   'V32 Ni4 H64 C80 N16 O52'
_cell_volume   4269.86236113
_cell_formula_units_Z   4
loop_
 _symmetry_equiv_pos_site_id
 _symmetry_equiv_pos_as_xyz
  1  'x, y, z'
loop_
 _atom_site_type_symbol
 _atom_site_label
 _atom_site_symmetry_multiplicity
 _atom_site_fract_x
 _atom_site_fract_y
 _atom_site_fract_z
 _atom_site_occupancy
 _atom_site_charge
  V  V0  1  0.37683378  0.38484240  0.63190420  1 1.774544
  V  V1  1  0.65194154  0.45338606  0.58114096  1 1.01099
  V  V2  1  0.53712382  0.34808642  0.57992527  1 1.019882
  V  V3  1  0.55687780  0.44086864  0.72819786  1 1.31718
  V  V4  1  0.62313471  0.61519727  0.63189291  1 1.773672
  V  V5  1  0.34804233  0.54665353  0.58115191  1 1.014769
  V  V6  1  0.46285910  0.65197011  0.57993406  1 1.020265
  V  V7  1  0.44307938  0.55920230  0.72818357  1 1.320834
  V  V8  1  0.38481392  0.62318421  0.36813601  1 1.761668
  V  V9  1  0.45337358  0.34806200  0.41888994  1 1.005047
  V  V10  1  0.34806518  0.46289643  0.42011286  1 1.012152
  V  V11  1  0.44083420  0.44311779  0.27185975  1 1.316518
  V  V12  1  0.61517708  0.37685117  0.36812390  1 1.763239
  V  V13  1  0.54661068  0.65198201  0.41889976  1 1.004647
  V  V14  1  0.65190926  0.53714206  0.42011836  1 1.013429
  V  V15  1  0.55914828  0.55692601  0.27186711  1 1.322793
  V  V16  1  0.87686213  0.11515749  0.13189048  1 1.744983
  V  V17  1  0.15196545  0.04659170  0.08109625  1 0.950144
  V  V18  1  0.03713287  0.15190273  0.07988015  1 0.946853
  V  V19  1  0.05691197  0.05913221  0.22812285  1 1.179795
  V  V20  1  0.12314836  0.88480903  0.13186969  1 1.746253
  V  V21  1  0.84807233  0.95336391  0.08110169  1 0.955138
  V  V22  1  0.96288930  0.84804393  0.07988353  1 0.948313
  V  V23  1  0.94310956  0.94081468  0.22812490  1 1.19059
  V  V24  1  0.88485209  0.87684051  0.86809882  1 1.756696
  V  V25  1  0.95338806  0.15193598  0.91886382  1 0.961137
  V  V26  1  0.84807767  0.03711639  0.92007977  1 0.954556
  V  V27  1  0.94084997  0.05687939  0.77183742  1 1.186377
  V  V28  1  0.11517636  0.12311215  0.86809068  1 1.759123
  V  V29  1  0.04663124  0.84802116  0.91886611  1 0.959411
  V  V30  1  0.15193965  0.96284225  0.92007729  1 0.953516
  V  V31  1  0.05916854  0.94307074  0.77183042  1 1.190772
  Ni  Ni32  1  0.24637102  0.25362060  0.75000370  1 0.738007
  Ni  Ni33  1  0.75362551  0.74637320  0.75000288  1 0.731066
  Ni  Ni34  1  0.25362739  0.75363252  0.24999655  1 0.730448
  Ni  Ni35  1  0.74636939  0.24637368  0.24999817  1 0.730447
  H  H36  1  0.06759453  0.25736634  0.75497401  1 0.10176
  H  H37  1  0.95569432  0.26199592  0.64850072  1 0.113959
  H  H38  1  0.22680411  0.32062250  0.55617341  1 0.096038
  H  H39  1  0.76722872  0.32299384  0.43992109  1 0.098396
  H  H40  1  0.87156261  0.33269301  0.55565074  1 0.11314
  H  H41  1  0.92492466  0.24264827  0.24748808  1 0.103613
  H  H42  1  0.03665287  0.25127367  0.35333041  1 0.111483
  H  H43  1  0.12251063  0.32542772  0.43971105  1 0.116395
  H  H44  1  0.93240754  0.74262002  0.75498222  1 0.101805
  H  H45  1  0.04430978  0.73800427  0.64851221  1 0.113869
  H  H46  1  0.77320317  0.67937469  0.55617635  1 0.095939
  H  H47  1  0.23277634  0.67702085  0.43991445  1 0.098496
  H  H48  1  0.12844740  0.66732139  0.55564930  1 0.113118
  H  H49  1  0.07507793  0.75735238  0.24748647  1 0.103642
  H  H50  1  0.96335204  0.74872970  0.35333246  1 0.111468
  H  H51  1  0.87749934  0.67458095  0.43971243  1 0.116298
  H  H52  1  0.25736482  0.93241292  0.24502796  1 0.101753
  H  H53  1  0.26201337  0.04431171  0.35150831  1 0.113861
  H  H54  1  0.32063598  0.77318820  0.44381425  1 0.095987
  H  H55  1  0.32299986  0.23276642  0.56010501  1 0.09826
  H  H56  1  0.33271290  0.12843844  0.44436373  1 0.113012
  H  H57  1  0.24266246  0.07506072  0.75252084  1 0.103563
  H  H58  1  0.25129015  0.96333518  0.64667321  1 0.111398
  H  H59  1  0.32544968  0.87748156  0.56027797  1 0.116286
  H  H60  1  0.74262664  0.06757733  0.24503413  1 0.101754
  H  H61  1  0.73798382  0.95567953  0.35151503  1 0.113967
  H  H62  1  0.67936312  0.22680325  0.44382769  1 0.095889
  H  H63  1  0.67699933  0.76722094  0.56010807  1 0.098355
  H  H64  1  0.66728207  0.87154983  0.44436957  1 0.113038
  H  H65  1  0.75734583  0.92492246  0.75252275  1 0.103622
  H  H66  1  0.74871097  0.03665111  0.64667679  1 0.111418
  H  H67  1  0.67455141  0.12250740  0.56029016  1 0.116384
  H  H68  1  0.56758178  0.24262293  0.25496154  1 0.102225
  H  H69  1  0.45568295  0.23796488  0.14848569  1 0.113719
  H  H70  1  0.72680624  0.17937092  0.05616030  1 0.095737
  H  H71  1  0.26722504  0.17700105  0.93990627  1 0.098029
  H  H72  1  0.37156199  0.16727152  0.05563166  1 0.112725
  H  H73  1  0.42492078  0.25733694  0.74747845  1 0.104307
  H  H74  1  0.53665203  0.24869393  0.85331390  1 0.111095
  H  H75  1  0.62250573  0.17454142  0.93970493  1 0.116371
  H  H76  1  0.43240620  0.75738253  0.25496905  1 0.102287
  H  H77  1  0.54430845  0.76202692  0.14849684  1 0.113627
  H  H78  1  0.27319248  0.82063579  0.05616686  1 0.095748
  H  H79  1  0.73277244  0.82298555  0.93990803  1 0.098115
  H  H80  1  0.62843647  0.83270971  0.05563954  1 0.112843
  H  H81  1  0.57507336  0.74267219  0.74747817  1 0.104269
  H  H82  1  0.46334235  0.75130456  0.85331587  1 0.111018
  H  H83  1  0.37749275  0.82545263  0.93971101  1 0.116302
  H  H84  1  0.75736311  0.56759870  0.74502321  1 0.102195
  H  H85  1  0.76201537  0.45569291  0.85149306  1 0.113761
  H  H86  1  0.82062610  0.72681224  0.94381836  1 0.095814
  H  H87  1  0.82298127  0.26722702  0.06008318  1 0.09815
  H  H88  1  0.83271010  0.37156431  0.94435531  1 0.112772
  H  H89  1  0.74264188  0.42493713  0.25250737  1 0.104215
  H  H90  1  0.75129340  0.53666635  0.14666445  1 0.111119
  H  H91  1  0.82545512  0.62251250  0.06027718  1 0.116294
  H  H92  1  0.24262002  0.43241065  0.74502437  1 0.102217
  H  H93  1  0.23798141  0.54431524  0.85149314  1 0.113676
  H  H94  1  0.17937614  0.27319798  0.94382901  1 0.095782
  H  H95  1  0.17702478  0.73278878  0.06008409  1 0.098095
  H  H96  1  0.16729764  0.62845169  0.94435926  1 0.112839
  H  H97  1  0.25736244  0.57508217  0.25250832  1 0.104193
  H  H98  1  0.24871129  0.46335221  0.14666731  1 0.111004
  H  H99  1  0.17455396  0.37750072  0.06028622  1 0.116334
  C  C100  1  0.07729603  0.27296855  0.68468472  1 0.111357
  C  C101  1  0.01468333  0.27591876  0.62429662  1 -0.169242
  C  C102  1  0.02873834  0.29273858  0.53295139  1 0.101499
  C  C103  1  0.16619083  0.30596649  0.57335604  1 0.098459
  C  C104  1  0.82732943  0.30540632  0.42408079  1 0.093696
  C  C105  1  0.88661861  0.31143978  0.48842503  1 -0.175857
  C  C106  1  0.96448015  0.29132768  0.46588853  1 0.099875
  C  C107  1  0.91539134  0.26300152  0.31614434  1 0.110967
  C  C108  1  0.97803574  0.26821790  0.37626628  1 -0.167728
  C  C109  1  0.10704824  0.30923978  0.50864041  1 -0.175423
  C  C110  1  0.92270505  0.72702417  0.68469150  1 0.111159
  C  C111  1  0.98532113  0.72408218  0.62430391  1 -0.169205
  C  C112  1  0.97126815  0.70726881  0.53295566  1 0.101615
  C  C113  1  0.83381296  0.69403221  0.57336101  1 0.098505
  C  C114  1  0.17267498  0.69460696  0.42407927  1 0.093629
  C  C115  1  0.11338675  0.68857435  0.48842655  1 -0.17579
  C  C116  1  0.03552494  0.70868363  0.46589168  1 0.099673
  C  C117  1  0.08461073  0.73700374  0.31614303  1 0.111068
  C  C118  1  0.02196710  0.73178954  0.37626903  1 -0.167682
  C  C119  1  0.89295816  0.69076652  0.50864518  1 -0.17531
  C  C120  1  0.27297235  0.92271165  0.31531824  1 0.111089
  C  C121  1  0.27593020  0.98532249  0.37571045  1 -0.169108
  C  C122  1  0.29275437  0.97125796  0.46705048  1 0.101305
  C  C123  1  0.30597665  0.83380738  0.42664090  1 0.098453
  C  C124  1  0.30541513  0.17266683  0.57593964  1 0.093962
  C  C125  1  0.31145451  0.11338029  0.51159189  1 -0.175717
  C  C126  1  0.29134354  0.03551178  0.53411788  1 0.100003
  C  C127  1  0.26301293  0.08459982  0.68386794  1 0.111337
  C  C128  1  0.26823255  0.02195559  0.62374326  1 -0.167837
  C  C129  1  0.30925548  0.89294883  0.49135838  1 -0.175226
  C  C130  1  0.72702092  0.07728388  0.31532337  1 0.111424
  C  C131  1  0.72406485  0.01467050  0.37571624  1 -0.16924
  C  C132  1  0.70724193  0.02873249  0.46705929  1 0.101299
  C  C133  1  0.69402011  0.16618633  0.42664824  1 0.09872
  C  C134  1  0.69458491  0.82732043  0.57594210  1 0.093872
  C  C135  1  0.68854295  0.88660968  0.51159555  1 -0.175707
  C  C136  1  0.70865465  0.96447385  0.53412580  1 0.100038
  C  C137  1  0.73698963  0.91538622  0.68386782  1 0.111116
  C  C138  1  0.73176691  0.97803264  0.62374497  1 -0.167859
  C  C139  1  0.69074234  0.10704240  0.49136629  1 -0.175677
  C  C140  1  0.57728797  0.22701599  0.18466839  1 0.111667
  C  C141  1  0.51467031  0.22405275  0.12428043  1 -0.169311
  C  C142  1  0.52873279  0.20723180  0.03294280  1 0.101497
  C  C143  1  0.66618962  0.19402179  0.07334186  1 0.098619
  C  C144  1  0.32732154  0.19458240  0.92406761  1 0.09382
  C  C145  1  0.38661383  0.18853563  0.98840191  1 -0.175667
  C  C146  1  0.46448125  0.20864430  0.96586970  1 0.100392
  C  C147  1  0.41538492  0.23698050  0.81613461  1 0.111276
  C  C148  1  0.47803727  0.23175389  0.87624949  1 -0.168022
  C  C149  1  0.60704535  0.19073603  0.00863413  1 -0.175697
  C  C150  1  0.42270506  0.77298574  0.18467511  1 0.111499
  C  C151  1  0.48532437  0.77594062  0.12428839  1 -0.169085
  C  C152  1  0.47126275  0.79275856  0.03294890  1 0.10135
  C  C153  1  0.33380516  0.80597968  0.07334595  1 0.098578
  C  C154  1  0.67267355  0.80540712  0.92406938  1 0.093597
  C  C155  1  0.61338356  0.81144973  0.98840728  1 -0.175788
  C  C156  1  0.53551520  0.79134296  0.96587654  1 0.100228
  C  C157  1  0.58461178  0.76301979  0.81613473  1 0.111406
  C  C158  1  0.52196029  0.76824066  0.87625315  1 -0.167941
  C  C159  1  0.39295192  0.80925761  0.00863761  1 -0.175405
  C  C160  1  0.77297346  0.57730038  0.81531542  1 0.111594
  C  C161  1  0.77593356  0.51467854  0.87570066  1 -0.169454
  C  C162  1  0.79275603  0.52873955  0.96703583  1 0.101684
  C  C163  1  0.80597314  0.66620045  0.92663919  1 0.098223
  C  C164  1  0.80540192  0.32732877  0.07592013  1 0.093446
  C  C165  1  0.81144844  0.38661865  0.01158438  1 -0.175561
  C  C166  1  0.79134027  0.46448928  0.03411330  1 0.099955
  C  C167  1  0.76299899  0.41539902  0.18385047  1 0.111348
  C  C168  1  0.76822930  0.47804883  0.12373099  1 -0.167917
  C  C169  1  0.80925606  0.60705342  0.99134609  1 -0.175075
  C  C170  1  0.22701739  0.42270586  0.81531764  1 0.111555
  C  C171  1  0.22406419  0.48532836  0.87570116  1 -0.168914
  C  C172  1  0.20724740  0.47127464  0.96704444  1 0.101444
  C  C173  1  0.19402700  0.33380807  0.92664499  1 0.098407
  C  C174  1  0.19460345  0.67268628  0.07591846  1 0.093873
  C  C175  1  0.18855841  0.61339334  0.01158359  1 -0.175878
  C  C176  1  0.20866569  0.53552648  0.03411639  1 0.10016
  C  C177  1  0.23700285  0.58461655  0.18384834  1 0.111334
  C  C178  1  0.23177481  0.52196465  0.12372924  1 -0.167709
  C  C179  1  0.19074879  0.39295696  0.99134976  1 -0.175418
  N  N180  1  0.15250205  0.28594418  0.65995877  1 -0.216928
  N  N181  1  0.27944672  0.15946448  0.66055499  1 -0.218279
  N  N182  1  0.84750134  0.71404747  0.65996243  1 -0.216545
  N  N183  1  0.72055652  0.84051871  0.66055776  1 -0.217927
  N  N184  1  0.28594727  0.84749820  0.34003767  1 -0.21683
  N  N185  1  0.15947800  0.72056766  0.33945480  1 -0.217833
  N  N186  1  0.71404565  0.15249364  0.34004750  1 -0.217036
  N  N187  1  0.84052427  0.27944072  0.33945860  1 -0.217832
  N  N188  1  0.65250022  0.21405011  0.15994585  1 -0.216928
  N  N189  1  0.77942959  0.34052831  0.16053894  1 -0.217727
  N  N190  1  0.34749453  0.78595412  0.15994993  1 -0.217022
  N  N191  1  0.22057332  0.65948829  0.16053852  1 -0.217872
  N  N192  1  0.78594199  0.65251187  0.84003844  1 -0.216535
  N  N193  1  0.65947793  0.77944368  0.83944968  1 -0.217655
  N  N194  1  0.21404932  0.34749970  0.84004812  1 -0.216914
  N  N195  1  0.34052004  0.22055345  0.83945269  1 -0.218054
  O  O196  1  0.47824421  0.36915321  0.68865968  1 -0.951778
  O  O197  1  0.62808472  0.36379984  0.65187777  1 -0.852636
  O  O198  1  0.36476357  0.48644141  0.69017559  1 -0.94437
  O  O199  1  0.31741153  0.43833360  0.53863421  1 -0.90116
  O  O200  1  0.42701012  0.32247002  0.53806532  1 -0.900664
  O  O201  1  0.31554042  0.32438289  0.68532210  1 -0.767953
  O  O202  1  0.52174160  0.63090176  0.68865812  1 -0.9522
  O  O203  1  0.37188309  0.63627269  0.65187642  1 -0.852223
  O  O204  1  0.63520372  0.51360152  0.69015440  1 -0.943805
  O  O205  1  0.68255370  0.56170277  0.53862640  1 -0.900801
  O  O206  1  0.57296882  0.67757777  0.53806744  1 -0.900964
  O  O207  1  0.68444483  0.67562908  0.68531528  1 -0.767457
  O  O208  1  0.36913304  0.52177875  0.31137443  1 -0.950461
  O  O209  1  0.36375661  0.37192748  0.34815831  1 -0.851254
  O  O210  1  0.48641416  0.63525908  0.30987837  1 -0.943486
  O  O211  1  0.43830135  0.68260802  0.46140851  1 -0.90024
  O  O212  1  0.32244972  0.57301750  0.46196392  1 -0.900723
  O  O213  1  0.32436773  0.68446783  0.31469553  1 -0.766262
  O  O214  1  0.63084759  0.47826819  0.31138216  1 -0.951264
  O  O215  1  0.63622128  0.62810879  0.34817082  1 -0.851563
  O  O216  1  0.51357999  0.36478554  0.30986021  1 -0.942715
  O  O217  1  0.56168842  0.31744243  0.46140023  1 -0.900238
  O  O218  1  0.67753701  0.42703568  0.46196291  1 -0.900321
  O  O219  1  0.67562336  0.31555932  0.31469047  1 -0.76628
  O  O220  1  0.97824335  0.13082788  0.18861585  1 -0.939036
  O  O221  1  0.12809385  0.13619904  0.15184871  1 -0.839374
  O  O222  1  0.86479274  0.01357669  0.19012996  1 -0.935854
  O  O223  1  0.81745507  0.06168233  0.03861397  1 -0.895103
  O  O224  1  0.92702041  0.17751098  0.03805146  1 -0.897115
  O  O225  1  0.81556366  0.17560924  0.18530758  1 -0.767273
  O  O226  1  0.02177478  0.86911859  0.18860914  1 -0.94031
  O  O227  1  0.87192788  0.86374458  0.15184544  1 -0.840132
  O  O228  1  0.13522753  0.98637245  0.19011552  1 -0.935056
  O  O229  1  0.18256900  0.93826624  0.03860073  1 -0.894788
  O  O230  1  0.07299316  0.82244137  0.03804582  1 -0.897043
  O  O231  1  0.18444192  0.82437225  0.18529938  1 -0.767335
  O  O232  1  0.86916001  0.97821314  0.81135712  1 -0.94081
  O  O233  1  0.86379393  0.12807598  0.84810952  1 -0.840458
  O  O234  1  0.98641627  0.86475707  0.80985621  1 -0.936844
  O  O235  1  0.93832482  0.81741582  0.96136681  1 -0.895659
  O  O236  1  0.82249040  0.92699391  0.96192286  1 -0.897546
  O  O237  1  0.82439579  0.81554920  0.81468936  1 -0.768248
  O  O238  1  0.13085586  0.02173305  0.81135077  1 -0.941231
  O  O239  1  0.13622873  0.87187212  0.84811890  1 -0.841555
  O  O240  1  0.01360904  0.13518999  0.80984183  1 -0.936888
  O  O241  1  0.06170380  0.18253407  0.96135842  1 -0.895668
  O  O242  1  0.17754552  0.07295232  0.96191738  1 -0.897487
  O  O243  1  0.17561645  0.18442413  0.81468494  1 -0.769135
  O  O244  1  0.49997912  0.50003578  0.80674428  1 -0.802354
  O  O245  1  0.49998802  0.50003137  0.19330692  1 -0.804613
  O  O246  1  0.00001932  -0.00003308  0.30669860  1 -0.785698
  O  O247  1  0.00000472  -0.00002961  0.69326463  1 -0.784373
