# generated using pymatgen
data_FeH12(CN2)12
_symmetry_space_group_name_H-M   'P 1'
_cell_length_a   7.99364699
_cell_length_b   20.51059348
_cell_length_c   8.94941729
_cell_angle_alpha   90.00001339
_cell_angle_beta   90.71993735
_cell_angle_gamma   90.00000157
_symmetry_Int_Tables_number   1
_chemical_formula_structural   FeH12(CN2)12
_chemical_formula_sum   'Fe2 H24 C24 N48'
_cell_volume   1467.18090298
_cell_formula_units_Z   2
loop_
 _symmetry_equiv_pos_site_id
 _symmetry_equiv_pos_as_xyz
  1  'x, y, z'
loop_
 _atom_site_type_symbol
 _atom_site_label
 _atom_site_symmetry_multiplicity
 _atom_site_fract_x
 _atom_site_fract_y
 _atom_site_fract_z
 _atom_site_occupancy
 _atom_site_charge
  Fe  Fe0  1  -0.00000000  0.00000001  0.00000000  1 0.609946
  Fe  Fe1  1  0.50000000  0.49999999  0.50000000  1 0.604376
  H  H2  1  0.05746633  0.85668727  0.82562260  1 0.128972
  H  H3  1  0.53587139  0.82859128  0.86717803  1 0.108607
  H  H4  1  0.98057258  0.65953601  0.65663980  1 0.108491
  H  H5  1  0.46054830  0.63227852  0.71560519  1 0.12933
  H  H6  1  0.42937386  0.99939823  0.86976609  1 0.119255
  H  H7  1  0.17199649  0.99555122  0.45017873  1 0.113272
  H  H8  1  0.44253360  0.35668724  0.67437738  1 0.128761
  H  H9  1  0.96412856  0.32859129  0.63282196  1 0.109121
  H  H10  1  0.51942737  0.15953601  0.84336020  1 0.10843
  H  H11  1  0.03945166  0.13227850  0.78439479  1 0.129451
  H  H12  1  0.07062605  0.49939823  0.63023382  1 0.117358
  H  H13  1  0.32800357  0.49555120  0.04982109  1 0.111566
  H  H14  1  0.94253369  0.14331273  0.17437739  1 0.128826
  H  H15  1  0.46412860  0.17140872  0.13282198  1 0.108316
  H  H16  1  0.01942743  0.34046399  0.34336020  1 0.108161
  H  H17  1  0.53945169  0.36772148  0.28439482  1 0.12912
  H  H18  1  0.57062614  0.00060177  0.13023392  1 0.119266
  H  H19  1  0.82800352  0.00444878  0.54982127  1 0.113361
  H  H20  1  0.55746641  0.64331276  0.32562262  1 0.128963
  H  H21  1  0.03587143  0.67140871  0.36717803  1 0.109344
  H  H22  1  0.48057265  0.84046398  0.15663981  1 0.108484
  H  H23  1  0.96054832  0.86772150  0.21560522  1 0.129602
  H  H24  1  0.92937395  0.50060177  0.36976618  1 0.1173
  H  H25  1  0.67199644  0.50444879  0.95017892  1 0.111594
  C  C26  1  0.92736234  0.86551932  0.85070766  1 0.034436
  C  C27  1  0.65773747  0.85124088  0.87265736  1 0.014814
  C  C28  1  0.85760434  0.63766993  0.65334938  1 0.012117
  C  C29  1  0.58907065  0.62367280  0.68486034  1 0.032792
  C  C30  1  0.32878414  0.99763912  0.78741280  1 0.066655
  C  C31  1  0.19665961  0.99516742  0.56957412  1 0.033952
  C  C32  1  0.57263769  0.36551931  0.64929217  1 0.037035
  C  C33  1  0.84226244  0.35124089  0.62734261  1 0.014032
  C  C34  1  0.64239561  0.13766992  0.84665064  1 0.011986
  C  C35  1  0.91092933  0.12367277  0.81513958  1 0.028672
  C  C36  1  0.17121669  0.49763910  0.71258703  1 0.053046
  C  C37  1  0.30334289  0.49516738  0.93042400  1 0.032518
  C  C38  1  0.07263772  0.13448069  0.14929234  1 0.034358
  C  C39  1  0.34226248  0.14875912  0.12734264  1 0.014744
  C  C40  1  0.14239572  0.36233007  0.34665062  1 0.012282
  C  C41  1  0.41092928  0.37632718  0.31513967  1 0.032881
  C  C42  1  0.67121587  0.00236088  0.21258721  1 0.066597
  C  C43  1  0.80334039  0.00483258  0.43042587  1 0.033808
  C  C44  1  0.42736230  0.63448069  0.35070784  1 0.036813
  C  C45  1  0.15773757  0.64875910  0.37265740  1 0.013661
  C  C46  1  0.35760439  0.86233009  0.15334935  1 0.011985
  C  C47  1  0.08907068  0.87632723  0.18486042  1 0.028577
  C  C48  1  0.82878331  0.50236090  0.28741295  1 0.053008
  C  C49  1  0.69665712  0.50483262  0.06957599  1 0.032485
  N  N50  1  0.86186087  0.91915109  0.90801455  1 -0.179972
  N  N51  1  0.69236036  0.91051305  0.92216086  1 -0.182468
  N  N52  1  0.80296805  0.82094746  0.82717757  1 0.137046
  N  N53  1  0.83154504  0.75981742  0.77100006  1 -0.187397
  N  N54  1  0.68964545  0.72760072  0.76973710  1 -0.190767
  N  N55  1  0.71577327  0.66720809  0.70907811  1 0.141671
  N  N56  1  0.64951574  0.57153302  0.61710367  1 -0.170167
  N  N57  1  0.81841096  0.57995298  0.59723471  1 -0.180505
  N  N58  1  0.16551981  0.99535783  0.81106137  1 -0.192624
  N  N59  1  0.08262949  0.99365606  0.67395291  1 -0.204152
  N  N60  1  0.35369326  0.99780001  0.63579044  1 0.128764
  N  N61  1  0.50842498  0.00025803  0.57201640  1 -0.127864
  N  N62  1  0.63813884  0.41915108  0.59198534  1 -0.167106
  N  N63  1  0.80763955  0.41051296  0.57783914  1 -0.18007
  N  N64  1  0.69703211  0.32094738  0.67282253  1 0.141147
  N  N65  1  0.66845538  0.25981745  0.72899985  1 -0.191973
  N  N66  1  0.81035443  0.22760084  0.73026281  1 -0.186226
  N  N67  1  0.78422684  0.16720794  0.79092212  1 0.13979
  N  N68  1  0.85048407  0.07153302  0.88289618  1 -0.171177
  N  N69  1  0.68158890  0.07995294  0.90276526  1 -0.18054
  N  N70  1  0.33447944  0.49535787  0.68893838  1 -0.180824
  N  N71  1  0.41736751  0.49365611  0.82604916  1 -0.207734
  N  N72  1  0.14630603  0.49780004  0.86420926  1 0.129338
  N  N73  1  0.99157771  0.50025801  0.92798962  1 -0.129413
  N  N74  1  0.13813913  0.08084893  0.09198546  1 -0.179838
  N  N75  1  0.30763963  0.08948697  0.07783916  1 -0.182168
  N  N76  1  0.19703194  0.17905254  0.17282243  1 0.136013
  N  N77  1  0.16845547  0.24018257  0.22899985  1 -0.185038
  N  N78  1  0.31035404  0.27239929  0.23026300  1 -0.188832
  N  N79  1  0.28422674  0.33279190  0.29092189  1 0.140964
  N  N80  1  0.35048425  0.42846696  0.38289631  1 -0.169903
  N  N81  1  0.18158906  0.42004699  0.40276526  1 -0.180284
  N  N82  1  0.83448018  0.00464217  0.18893865  1 -0.192871
  N  N83  1  0.91737049  0.00634394  0.32604709  1 -0.204048
  N  N84  1  0.64630675  0.00219999  0.36420956  1 0.128917
  N  N85  1  0.49157501  0.99974196  0.42798359  1 -0.129251
  N  N86  1  0.36186121  0.58084891  0.40801466  1 -0.16681
  N  N87  1  0.19236038  0.58948705  0.42216086  1 -0.179893
  N  N88  1  0.30296787  0.67905258  0.32717750  1 0.14227
  N  N89  1  0.33154433  0.74018263  0.27100014  1 -0.191993
  N  N90  1  0.18964586  0.77239908  0.26973720  1 -0.186485
  N  N91  1  0.21577319  0.83279209  0.20907786  1 0.140193
  N  N92  1  0.14951588  0.92846699  0.11710383  1 -0.171241
  N  N93  1  0.31841116  0.92004706  0.09723474  1 -0.180436
  N  N94  1  0.66552056  0.50464214  0.31106161  1 -0.180815
  N  N95  1  0.58263249  0.50634390  0.17395083  1 -0.20788
  N  N96  1  0.85369398  0.50219996  0.13579073  1 0.129322
  N  N97  1  0.00842228  0.49974200  0.07201038  1 -0.1292
