# generated using pymatgen
data_ScC8N4O13
_symmetry_space_group_name_H-M   'P 1'
_cell_length_a   18.24256200
_cell_length_b   8.75730600
_cell_length_c   10.77817671
_cell_angle_alpha   90.00865960
_cell_angle_beta   90.03108742
_cell_angle_gamma   90.00001963
_symmetry_Int_Tables_number   1
_chemical_formula_structural   ScC8N4O13
_chemical_formula_sum   'Sc4 C32 N16 O52'
_cell_volume   1721.87486660
_cell_formula_units_Z   4
loop_
 _symmetry_equiv_pos_site_id
 _symmetry_equiv_pos_as_xyz
  1  'x, y, z'
loop_
 _atom_site_type_symbol
 _atom_site_label
 _atom_site_symmetry_multiplicity
 _atom_site_fract_x
 _atom_site_fract_y
 _atom_site_fract_z
 _atom_site_occupancy
 _atom_site_charge
  Sc  Sc0  1  0.50139141  0.50351955  0.48595515  1 1.839991
  Sc  Sc1  1  0.00184269  0.00428349  0.02395756  1 1.838871
  Sc  Sc2  1  0.49980762  0.10999374  0.44884356  1 1.841806
  Sc  Sc3  1  0.99970950  0.40100099  0.04878758  1 1.838561
  C  C4  1  0.70342663  0.12076052  0.73284489  1 0.041605
  C  C5  1  0.22346820  0.60416881  0.23413071  1 0.041066
  C  C6  1  0.27553768  0.39522260  0.72226073  1 0.041349
  C  C7  1  0.79782219  0.88271257  0.23698558  1 0.041105
  C  C8  1  0.29513359  0.62581244  0.27562402  1 0.041869
  C  C9  1  0.77164060  0.09881970  0.78817813  1 0.040315
  C  C10  1  0.72826620  0.90642284  0.28679006  1 0.041285
  C  C11  1  0.20945901  0.37702529  0.78530394  1 0.040642
  C  C12  1  0.27989572  0.89324761  0.26280735  1 0.041673
  C  C13  1  0.79576248  0.36530323  0.77288403  1 0.04013
  C  C14  1  0.70401749  0.64124055  0.27149177  1 0.041012
  C  C15  1  0.21899790  0.10766863  0.76167822  1 0.040489
  C  C16  1  0.72727016  0.38782274  0.71903510  1 0.041858
  C  C17  1  0.21110079  0.87098277  0.20915719  1 0.040966
  C  C18  1  0.28897767  0.12547410  0.71230053  1 0.041481
  C  C19  1  0.77363490  0.61718528  0.22240195  1 0.041294
  C  C20  1  0.60820688  0.28633529  0.62535394  1 0.674766
  C  C21  1  0.67938482  0.26600559  0.69533993  1 -0.071259
  C  C22  1  0.10630777  0.70456017  0.12617208  1 0.696172
  C  C23  1  0.17967302  0.72597317  0.19360131  1 -0.075369
  C  C24  1  0.39043977  0.28729203  0.61911989  1 0.675715
  C  C25  1  0.31832069  0.27031291  0.68647286  1 -0.06981
  C  C26  1  0.89569302  0.71653893  0.13467703  1 0.695056
  C  C27  1  0.82268654  0.73732987  0.20120113  1 -0.075472
  C  C28  1  0.39719043  0.79544103  0.36643409  1 0.696798
  C  C29  1  0.32469140  0.77163508  0.29824939  1 -0.075737
  C  C30  1  0.89075995  0.20257321  0.88196641  1 0.675289
  C  C31  1  0.81955937  0.22031865  0.81135322  1 -0.070603
  C  C32  1  0.60647359  0.80887252  0.37443604  1 0.694131
  C  C33  1  0.67933763  0.78624805  0.30788198  1 -0.074963
  C  C34  1  0.10747116  0.21437211  0.87665585  1 0.675528
  C  C35  1  0.17829058  0.23238679  0.80505079  1 -0.071409
  N  N36  1  0.65491331  0.98564489  0.71763363  1 0.509552
  N  N37  1  0.19531651  0.44495901  0.23926073  1 0.503443
  N  N38  1  0.29785042  0.55401702  0.69167328  1 0.510524
  N  N39  1  0.84589988  0.01847327  0.22648511  1 0.50239
  N  N40  1  0.34176594  0.48849678  0.28869629  1 0.502737
  N  N41  1  0.79196942  0.93933207  0.82100329  1 0.509561
  N  N42  1  0.70786452  0.06696020  0.31559473  1 0.501925
  N  N43  1  0.17335193  0.51723768  0.83250016  1 0.50975
  N  N44  1  0.30293749  0.05444146  0.28067123  1 0.502431
  N  N45  1  0.84534888  0.49903267  0.78632101  1 0.509858
  N  N46  1  0.65464643  0.50808466  0.28137909  1 0.501616
  N  N47  1  0.18914582  0.94969021  0.76340763  1 0.509797
  N  N48  1  0.70753094  0.54853187  0.68886147  1 0.509776
  N  N49  1  0.17254213  0.01044975  0.16964355  1 0.503616
  N  N50  1  0.33339098  0.98643643  0.68990066  1 0.510225
  N  N51  1  0.79351419  0.45621662  0.19456578  1 0.502342
  O  O52  1  0.58545091  0.42131920  0.60793897  1 -0.611467
  O  O53  1  0.66696573  0.90316415  0.62750373  1 -0.280221
  O  O54  1  0.60803411  0.96805732  0.79854657  1 -0.268097
  O  O55  1  0.07959257  0.82281773  0.07685745  1 -0.614847
  O  O56  1  0.22144174  0.35421671  0.16388445  1 -0.282463
  O  O57  1  0.15189836  0.41745813  0.32348333  1 -0.273655
  O  O58  1  0.41738492  0.16467785  0.57620751  1 -0.612015
  O  O59  1  0.27629256  0.60009879  0.58997509  1 -0.28049
  O  O60  1  0.33181946  0.62494799  0.77148743  1 -0.269015
  O  O61  1  0.91761386  0.58041342  0.11700749  1 -0.614894
  O  O62  1  0.83542499  0.10211409  0.13633613  1 -0.282708
  O  O63  1  0.89031905  0.03661548  0.31131970  1 -0.271897
  O  O64  1  0.42141338  0.92891505  0.37884188  1 -0.617912
  O  O65  1  0.33198192  0.40657003  0.38003168  1 -0.28185
  O  O66  1  0.38581880  0.46906011  0.20362183  1 -0.273722
  O  O67  1  0.91759771  0.32569430  0.92315813  1 -0.610073
  O  O68  1  0.77191457  0.89352563  0.92360799  1 -0.281143
  O  O69  1  0.82384289  0.86745507  0.73925974  1 -0.267379
  O  O70  1  0.57905772  0.68760762  0.41994531  1 -0.614804
  O  O71  1  0.72677197  0.11575048  0.41797259  1 -0.281847
  O  O72  1  0.67708089  0.13688071  0.23142704  1 -0.272765
  O  O73  1  0.08112800  0.08155897  0.89031832  1 -0.610703
  O  O74  1  0.19508892  0.56137018  0.93474536  1 -0.280678
  O  O75  1  0.12732280  0.57794115  0.76522894  1 -0.267883
  O  O76  1  0.42578480  0.67295770  0.40837257  1 -0.616348
  O  O77  1  0.27291933  0.12003510  0.36831234  1 -0.281534
  O  O78  1  0.34584176  0.10867366  0.20467691  1 -0.273777
  O  O79  1  0.91680455  0.06946191  0.89656781  1 -0.609977
  O  O80  1  0.83251371  0.58623535  0.87321197  1 -0.28121
  O  O81  1  0.89436956  0.51012830  0.70826482  1 -0.267593
  O  O82  1  0.58115619  0.94242217  0.38133020  1 -0.615881
  O  O83  1  0.66727011  0.41841872  0.36689014  1 -0.281729
  O  O84  1  0.60573472  0.49940994  0.20277817  1 -0.272438
  O  O85  1  0.08082064  0.33707447  0.91952014  1 -0.610692
  O  O86  1  0.21656537  0.86141847  0.83940318  1 -0.280777
  O  O87  1  0.14329863  0.92086732  0.68327054  1 -0.267819
  O  O88  1  0.57769093  0.16480686  0.58728660  1 -0.611265
  O  O89  1  0.73105657  0.59852221  0.58973066  1 -0.280001
  O  O90  1  0.67355697  0.61750286  0.76982426  1 -0.268396
  O  O91  1  0.07975005  0.57060617  0.12326988  1 -0.614805
  O  O92  1  0.19393647  0.06661954  0.07096246  1 -0.282571
  O  O93  1  0.12491111  0.06060154  0.23941263  1 -0.2737
  O  O94  1  0.41797557  0.41957182  0.60950469  1 -0.611966
  O  O95  1  0.31755064  0.91016348  0.59763723  1 -0.280491
  O  O96  1  0.38132555  0.96020920  0.76721361  1 -0.268839
  O  O97  1  0.92708103  0.83756769  0.10075261  1 -0.61497
  O  O98  1  0.76892840  0.40298618  0.09725305  1 -0.282658
  O  O99  1  0.82942361  0.39018327  0.27499386  1 -0.271994
  O  O100  1  0.50121074  0.31411821  0.39466142  1 -1.076924
  O  O101  1  0.98936880  0.61149978  0.92819079  1 -0.111754
  O  O102  1  0.49946868  0.73664067  0.58050186  1 -0.106395
  O  O103  1  0.00097383  0.19201980  0.10735935  1 -1.076716
