# generated using pymatgen
data_CuH3(CN2)3
_symmetry_space_group_name_H-M   'P 1'
_cell_length_a   12.36606429
_cell_length_b   12.36613439
_cell_length_c   12.77984058
_cell_angle_alpha   89.99945792
_cell_angle_beta   90.00165220
_cell_angle_gamma   119.99959696
_symmetry_Int_Tables_number   1
_chemical_formula_structural   CuH3(CN2)3
_chemical_formula_sum   'Cu10 H30 C30 N60'
_cell_volume   1692.47901881
_cell_formula_units_Z   10
loop_
 _symmetry_equiv_pos_site_id
 _symmetry_equiv_pos_as_xyz
  1  'x, y, z'
loop_
 _atom_site_type_symbol
 _atom_site_label
 _atom_site_symmetry_multiplicity
 _atom_site_fract_x
 _atom_site_fract_y
 _atom_site_fract_z
 _atom_site_occupancy
 _atom_site_charge
  Cu  Cu0  1  0.33333244  0.66667008  0.09431630  1 0.411644
  Cu  Cu1  1  0.33333230  0.66666622  0.40566069  1 0.412054
  Cu  Cu2  1  0.00000141  0.50000026  0.49999510  1 0.50085
  Cu  Cu3  1  0.50000031  -0.00000537  0.00000174  1 0.501008
  Cu  Cu4  1  0.66666529  0.33333128  0.90567089  1 0.411501
  Cu  Cu5  1  0.49999728  0.50000402  0.99999970  1 0.501076
  Cu  Cu6  1  0.49999883  0.50000113  0.49999767  1 0.501025
  Cu  Cu7  1  0.00000507  0.50000034  0.00000224  1 0.500956
  Cu  Cu8  1  0.49999970  -0.00000146  0.49999583  1 0.500749
  Cu  Cu9  1  0.66666664  0.33333439  0.59432874  1 0.412055
  H  H10  1  0.11936026  0.55968029  0.75000136  1 0.120832
  H  H11  1  0.44031978  0.55968171  0.75000167  1 0.120809
  H  H12  1  0.55968229  0.11936476  0.25000219  1 0.120867
  H  H13  1  0.28656390  0.25763883  0.36813757  1 0.116343
  H  H14  1  0.71343646  0.74236209  0.63186302  1 0.116332
  H  H15  1  0.88063731  0.44031801  0.25000026  1 0.120877
  H  H16  1  0.28656249  0.25763669  0.13186228  1 0.116354
  H  H17  1  0.25763647  0.28656050  0.86813671  1 0.116358
  H  H18  1  0.25763761  0.97107593  0.63186271  1 0.116315
  H  H19  1  0.25763959  0.28656369  0.63186257  1 0.116324
  H  H20  1  0.25763833  0.97107495  0.86813830  1 0.116371
  H  H21  1  0.55967983  0.44031864  0.24999894  1 0.120845
  H  H22  1  0.97107528  0.71343510  0.36813854  1 0.116367
  H  H23  1  0.74236094  0.02892447  0.13186246  1 0.116322
  H  H24  1  0.02892365  0.74236174  0.86813717  1 0.11634
  H  H25  1  0.28656369  0.02892495  0.13186231  1 0.116351
  H  H26  1  0.71343945  0.97107541  0.86813608  1 0.116355
  H  H27  1  0.44032017  0.88063934  0.74999933  1 0.120835
  H  H28  1  0.74235934  0.71343461  0.36813885  1 0.116338
  H  H29  1  0.71343832  0.97107430  0.63186260  1 0.116312
  H  H30  1  0.97107757  0.25763977  0.13186324  1 0.11635
  H  H31  1  0.97107626  0.25763930  0.36813661  1 0.116333
  H  H32  1  0.71344009  0.74236552  0.86813600  1 0.116395
  H  H33  1  0.74236137  0.71343674  0.13186176  1 0.116342
  H  H34  1  0.28656253  0.02892525  0.36813819  1 0.116347
  H  H35  1  0.74236138  0.02892365  0.36813757  1 0.116325
  H  H36  1  0.02892219  0.28655966  0.86813555  1 0.116395
  H  H37  1  0.02892397  0.28656285  0.63186286  1 0.116344
  H  H38  1  0.97107733  0.71343713  0.13186293  1 0.116339
  H  H39  1  0.02892414  0.74236157  0.63186347  1 0.116336
  C  C40  1  0.11776602  0.77025322  0.90535833  1 -0.071981
  C  C41  1  0.11776120  0.34750908  0.90535589  1 -0.072152
  C  C42  1  0.65249119  0.88223935  0.90535613  1 -0.072109
  C  C43  1  0.77024186  0.11776401  0.40536662  1 -0.072186
  C  C44  1  0.22974720  0.88223384  0.90535888  1 -0.072028
  C  C45  1  0.49083534  0.98167008  0.75000174  1 0.111607
  C  C46  1  0.49083495  0.50916589  0.75000516  1 0.111694
  C  C47  1  0.77023933  0.11776375  0.09463307  1 -0.072199
  C  C48  1  0.65247697  0.77024147  0.59463346  1 -0.072308
  C  C49  1  0.01832873  0.50916445  0.75000206  1 0.111618
  C  C50  1  0.34752356  0.22975909  0.09463336  1 -0.072196
  C  C51  1  0.77023955  0.65247549  0.09463282  1 -0.072182
  C  C52  1  0.34752434  0.11776363  0.09463331  1 -0.072281
  C  C53  1  0.11776461  0.34752148  0.59463436  1 -0.072139
  C  C54  1  0.88223677  0.22976035  0.09463350  1 -0.072226
  C  C55  1  0.88223594  0.22975852  0.40536572  1 -0.072243
  C  C56  1  0.22975847  0.34752197  0.59463376  1 -0.07227
  C  C57  1  0.22975825  0.88223588  0.59463310  1 -0.072238
  C  C58  1  0.88223464  0.65247671  0.40536642  1 -0.07216
  C  C59  1  0.77024072  0.65247643  0.40536691  1 -0.072254
  C  C60  1  0.65247795  0.88223407  0.59463329  1 -0.072154
  C  C61  1  0.11776412  0.77024116  0.59463379  1 -0.072227
  C  C62  1  0.50916948  0.01833954  0.25000998  1 0.111734
  C  C63  1  0.50916655  0.49083236  0.25000834  1 0.111794
  C  C64  1  0.88223645  0.65247528  0.09463329  1 -0.072228
  C  C65  1  0.98166287  0.49083127  0.25000926  1 0.111618
  C  C66  1  0.34752322  0.22975868  0.40536628  1 -0.072242
  C  C67  1  0.22974714  0.34750908  0.90535687  1 -0.072131
  C  C68  1  0.34752235  0.11776587  0.40536668  1 -0.072183
  C  C69  1  0.65249175  0.77025354  0.90535638  1 -0.072118
  N  N70  1  0.17107450  0.58553735  0.30151480  1 -0.036147
  N  N71  1  0.41445292  0.82890685  0.19849198  1 -0.03553
  N  N72  1  0.13425777  0.44493042  0.53437794  1 -0.163131
  N  N73  1  0.52651445  0.05302894  0.83598284  1 -0.193984
  N  N74  1  0.58553593  0.17107363  0.80151884  1 -0.035785
  N  N75  1  0.47349936  0.52650286  0.16401208  1 -0.194318
  N  N76  1  0.25112507  0.50224450  0.49889971  1 -0.036424
  N  N77  1  0.58553859  0.41446058  0.69847532  1 -0.035744
  N  N78  1  0.13425178  0.44492106  0.96561719  1 -0.163275
  N  N79  1  0.68932485  0.13425416  0.46562320  1 -0.163069
  N  N80  1  0.86574314  0.55506869  0.46562251  1 -0.163214
  N  N81  1  0.86574538  0.31067591  0.46562173  1 -0.163049
  N  N82  1  0.58553826  0.17107854  0.69847993  1 -0.035904
  N  N83  1  0.31067349  0.44492132  0.96561797  1 -0.163308
  N  N84  1  0.68932374  0.55506292  0.03437362  1 -0.163117
  N  N85  1  0.55507901  0.68933235  0.96561829  1 -0.163447
  N  N86  1  0.86573393  0.31066976  0.03437429  1 -0.163139
  N  N87  1  0.86573475  0.55506205  0.03437436  1 -0.163051
  N  N88  1  0.68932775  0.13426465  0.03437347  1 -0.163147
  N  N89  1  0.13425736  0.68932534  0.53437799  1 -0.163028
  N  N90  1  0.94696762  0.47348507  0.66401435  1 -0.193962
  N  N91  1  0.25112741  0.50225561  0.00111320  1 -0.036077
  N  N92  1  0.74888252  0.25111568  0.99890514  1 -0.036041
  N  N93  1  0.52651459  0.05302952  0.66401446  1 -0.193787
  N  N94  1  0.05300631  0.52650196  0.33599506  1 -0.193755
  N  N95  1  0.82891741  0.41445936  0.69848052  1 -0.03581
  N  N96  1  0.41446518  0.82892960  0.30151536  1 -0.036057
  N  N97  1  0.13423800  0.68931892  0.96561668  1 -0.163467
  N  N98  1  0.31067400  0.86574334  0.53437690  1 -0.162983
  N  N99  1  0.25112287  0.74887845  0.49890043  1 -0.036389
  N  N100  1  0.44493679  0.13426273  0.03437436  1 -0.163047
  N  N101  1  0.31068413  0.86576386  0.96561745  1 -0.163477
  N  N102  1  0.55506820  0.86574065  0.53437632  1 -0.163097
  N  N103  1  0.44493324  0.31067649  0.46562358  1 -0.163014
  N  N104  1  0.31067491  0.44493053  0.53437727  1 -0.162998
  N  N105  1  0.94696965  0.47348368  0.83598307  1 -0.193933
  N  N106  1  0.47349604  0.94699210  0.16401919  1 -0.194403
  N  N107  1  0.74887940  0.49776068  0.99890246  1 -0.036171
  N  N108  1  0.55507808  0.86574506  0.96561848  1 -0.163353
  N  N109  1  0.41446111  0.58553994  0.30152129  1 -0.036115
  N  N110  1  0.50224752  0.25112664  0.50110306  1 -0.036422
  N  N111  1  0.58553345  0.41446317  0.80152287  1 -0.035795
  N  N112  1  0.49775214  0.74887386  0.49889803  1 -0.036373
  N  N113  1  0.68932326  0.55506837  0.46562353  1 -0.163066
  N  N114  1  0.41444415  0.58555904  0.19847829  1 -0.035582
  N  N115  1  0.82892348  0.41446101  0.80151694  1 -0.035744
  N  N116  1  0.05301296  0.52650767  0.16402158  1 -0.194362
  N  N117  1  0.49775424  0.74887857  0.00110948  1 -0.035945
  N  N118  1  0.74887353  0.49775409  0.50110191  1 -0.036295
  N  N119  1  0.52651686  0.47348537  0.66401535  1 -0.194024
  N  N120  1  0.47349359  0.52650456  0.33598698  1 -0.19388
  N  N121  1  0.55506659  0.68932431  0.53437669  1 -0.162947
  N  N122  1  0.47349889  0.94699718  0.33599314  1 -0.193831
  N  N123  1  0.17109150  0.58554783  0.19849718  1 -0.035452
  N  N124  1  0.44493493  0.31067433  0.03437459  1 -0.163138
  N  N125  1  0.52651183  0.47348584  0.83598180  1 -0.19397
  N  N126  1  0.74887662  0.25112207  0.50110210  1 -0.03628
  N  N127  1  0.44493153  0.13425839  0.46562400  1 -0.163035
  N  N128  1  0.50223864  0.25111895  0.99890182  1 -0.036138
  N  N129  1  0.25114206  0.74885971  0.00112619  1 -0.035878
