# generated using pymatgen
data_AlC8O4F
_symmetry_space_group_name_H-M   'P 1'
_cell_length_a   6.70275000
_cell_length_b   16.68069400
_cell_length_c   13.27751200
_cell_angle_alpha   90.00000000
_cell_angle_beta   90.00000000
_cell_angle_gamma   90.00000000
_symmetry_Int_Tables_number   1
_chemical_formula_structural   AlC8O4F
_chemical_formula_sum   'Al4 C32 O16 F4'
_cell_volume   1484.51243366
_cell_formula_units_Z   4
loop_
 _symmetry_equiv_pos_site_id
 _symmetry_equiv_pos_as_xyz
  1  'x, y, z'
loop_
 _atom_site_type_symbol
 _atom_site_label
 _atom_site_symmetry_multiplicity
 _atom_site_fract_x
 _atom_site_fract_y
 _atom_site_fract_z
 _atom_site_occupancy
 _atom_site_charge
  Al  Al0  1  0.25345439  0.25680383  0.74218101  1 1.616347
  Al  Al1  1  0.75310246  0.25616195  0.74247365  1 1.616351
  Al  Al2  1  0.74932995  0.75672168  0.24550016  1 1.616347
  Al  Al3  1  0.24955132  0.75700862  0.24533811  1 1.616351
  C  C4  1  0.84676088  0.05546601  0.99087972  1 -0.010427
  C  C5  1  0.34985287  0.55215578  0.49034445  1 -0.010427
  C  C6  1  0.16250774  0.47581403  0.96217143  1 -0.010427
  C  C7  1  0.65672157  0.95760333  0.49232797  1 -0.010427
  C  C8  1  0.16473399  0.53896286  0.02147258  1 -0.010366
  C  C9  1  0.66031865  0.02004379  0.54931245  1 -0.010366
  C  C10  1  0.84235395  0.99402385  0.04968883  1 -0.010366
  C  C11  1  0.35193120  0.49175086  0.54634213  1 -0.010366
  C  C12  1  0.15602348  0.96474561  0.00756545  1 -0.010427
  C  C13  1  0.65719572  0.45689696  0.49111836  1 -0.010427
  C  C14  1  0.84076520  0.55059951  0.00549547  1 -0.010428
  C  C15  1  0.34629773  0.04853460  0.50570167  1 -0.010428
  C  C16  1  0.83873195  0.48738495  0.94616373  1 -0.010366
  C  C17  1  0.34255273  0.98610337  0.44873751  1 -0.010366
  C  C18  1  0.16054780  0.02618250  0.94876473  1 -0.010366
  C  C19  1  0.65520796  0.51735200  0.43511841  1 -0.010366
  C  C20  1  0.00651675  0.08138061  0.93078538  1 0.008878
  C  C21  1  0.01150545  0.15099120  0.86145713  1 0.652794
  C  C22  1  0.50371898  0.57549449  0.42396639  1 0.008878
  C  C23  1  0.50723111  0.64595090  0.35634939  1 0.652794
  C  C24  1  -0.00134472  0.43956893  0.91608593  1 0.008878
  C  C25  1  0.99442033  0.36690332  0.85235359  1 0.652795
  C  C26  1  0.49724691  0.93087370  0.43283629  1 0.008878
  C  C27  1  0.49170713  0.86069990  0.36514475  1 0.652795
  C  C28  1  0.00415276  0.58580409  0.05314752  1 0.008878
  C  C29  1  0.00780492  0.65414523  0.12404349  1 0.652794
  C  C30  1  0.50604974  0.07550720  0.56481147  1 0.008878
  C  C31  1  0.51125768  0.14705610  0.63022126  1 0.652794
  C  C32  1  0.99603934  0.93866966  0.06733814  1 0.008878
  C  C33  1  0.99108225  0.86778561  0.13439827  1 0.652795
  C  C34  1  0.50298775  0.43339277  0.55721001  1 0.008878
  C  C35  1  0.49709892  0.36276216  0.62452229  1 0.652795
  O  O36  1  0.18068518  0.16786183  0.82331987  1 -0.589354
  O  O37  1  0.67597293  0.66328628  0.31790161  1 -0.589354
  O  O38  1  0.82460123  0.34785733  0.81702558  1 -0.589355
  O  O39  1  0.32195724  0.84446674  0.32732612  1 -0.589355
  O  O40  1  0.84290393  0.68949562  0.14006327  1 -0.589352
  O  O41  1  0.34746675  0.18440906  0.64222922  1 -0.589352
  O  O42  1  0.15564210  0.83113082  0.14699791  1 -0.589352
  O  O43  1  0.66005686  0.32506049  0.63785146  1 -0.589352
  O  O44  1  0.82229225  0.84997131  0.17222669  1 -0.589355
  O  O45  1  0.32733948  0.34626021  0.66239601  1 -0.589355
  O  O46  1  0.17734755  0.67035624  0.16189709  1 -0.589355
  O  O47  1  0.68035125  0.16448847  0.66787851  1 -0.589355
  O  O48  1  0.15932827  0.33050935  0.84041752  1 -0.589352
  O  O49  1  0.65519399  0.82356175  0.35127440  1 -0.589352
  O  O50  1  0.84703271  0.18729582  0.84683880  1 -0.589352
  O  O51  1  0.34284274  0.68281365  0.34375718  1 -0.589352
  F  F52  1  0.00334699  0.25531948  0.68271074  1 -0.540695
  F  F53  1  0.49970167  0.75933168  0.18581742  1 -0.540695
  F  F54  1  0.99927584  0.75479065  0.30519273  1 -0.540695
  F  F55  1  0.50307718  0.25764724  0.80233675  1 -0.540695
