# generated using pymatgen
data_CuH2(C3O2)2
_symmetry_space_group_name_H-M   'P 1'
_cell_length_a   18.70428330
_cell_length_b   18.70433077
_cell_length_c   18.70378615
_cell_angle_alpha   60.00042874
_cell_angle_beta   59.99668955
_cell_angle_gamma   60.00076787
_symmetry_Int_Tables_number   1
_chemical_formula_structural   CuH2(C3O2)2
_chemical_formula_sum   'Cu12 H24 C72 O48'
_cell_volume   4626.90770729
_cell_formula_units_Z   12
loop_
 _symmetry_equiv_pos_site_id
 _symmetry_equiv_pos_as_xyz
  1  'x, y, z'
loop_
 _atom_site_type_symbol
 _atom_site_label
 _atom_site_symmetry_multiplicity
 _atom_site_fract_x
 _atom_site_fract_y
 _atom_site_fract_z
 _atom_site_occupancy
 _atom_site_charge
  Cu  Cu0  1  0.56576572  0.43423811  -0.00000383  1 0.817711
  Cu  Cu1  1  0.00000533  0.56571270  0.43428429  1 0.817029
  Cu  Cu2  1  0.00000184  0.43417376  0.00000176  1 0.815612
  Cu  Cu3  1  0.56574005  -0.00000125  -0.00000083  1 0.815463
  Cu  Cu4  1  0.43411979  -0.00000098  0.56588370  1 0.81146
  Cu  Cu5  1  0.00000276  0.00000181  0.43417600  1 0.820067
  Cu  Cu6  1  -0.00000047  0.56576151  -0.00000064  1 0.816153
  Cu  Cu7  1  -0.00000425  0.43416486  0.56584002  1 0.814972
  Cu  Cu8  1  0.43418211  0.56581613  0.00000381  1 0.815122
  Cu  Cu9  1  0.99999938  -0.00000180  0.56578124  1 0.814081
  Cu  Cu10  1  0.43418083  0.00000222  0.00000002  1 0.818456
  Cu  Cu11  1  0.56566177  0.00000016  0.43433776  1 0.812726
  H  H12  1  0.97131741  0.26610806  0.26610236  1 0.136249
  H  H13  1  0.50352336  0.73390215  0.73389239  1 0.136064
  H  H14  1  0.73389731  0.73389717  0.02868329  1 0.136601
  H  H15  1  0.49648638  0.26609762  0.97131729  1 0.136634
  H  H16  1  0.97131763  0.26610699  0.49648014  1 0.136426
  H  H17  1  0.73389634  0.50353019  0.02868291  1 0.136356
  H  H18  1  0.49650328  0.26610864  0.26607088  1 0.136398
  H  H19  1  0.73392536  0.02868317  0.50350408  1 0.136185
  H  H20  1  0.02868350  0.50353006  0.73389162  1 0.136367
  H  H21  1  0.73391873  0.73390381  0.50349561  1 0.136281
  H  H22  1  0.49650347  0.97131714  0.26607043  1 0.136366
  H  H23  1  0.73389428  0.02868338  0.73389685  1 0.136197
  H  H24  1  0.26611342  0.26610400  0.97131631  1 0.136254
  H  H25  1  0.02868321  0.73391421  0.50351228  1 0.136361
  H  H26  1  0.02868332  0.73389425  0.73389620  1 0.13635
  H  H27  1  0.26610321  0.26610114  0.49647944  1 0.136342
  H  H28  1  0.50352514  0.02868397  0.73389629  1 0.136018
  H  H29  1  0.50352400  0.73390232  0.02868307  1 0.136419
  H  H30  1  0.26610695  0.49647081  0.97131752  1 0.136428
  H  H31  1  0.26611139  0.97131688  0.49647513  1 0.135848
  H  H32  1  0.97131788  0.49648452  0.26608713  1 0.136351
  H  H33  1  0.73389996  0.50352934  0.73388875  1 0.136473
  H  H34  1  0.26611639  0.97131651  0.26610169  1 0.136201
  H  H35  1  0.26611541  0.49647866  0.26608890  1 0.136264
  C  C36  1  0.38631691  0.38630159  0.25684999  1 -0.028178
  C  C37  1  0.30001268  0.29999581  0.42963672  1 -0.078954
  C  C38  1  0.25688928  0.38629250  0.97052793  1 -0.027978
  C  C39  1  0.43047193  0.16290509  0.43055904  1 0.58147
  C  C40  1  0.42965951  0.30001636  0.29996596  1 -0.078961
  C  C41  1  0.38630556  0.38628607  0.97053310  1 -0.028283
  C  C42  1  0.30000981  0.97035505  0.30000294  1 -0.077825
  C  C43  1  0.02393753  0.56946011  0.83712987  1 0.582495
  C  C44  1  0.02964223  0.70003119  0.57034951  1 -0.078383
  C  C45  1  0.70001222  0.70000937  0.57033643  1 -0.078929
  C  C46  1  0.61373795  0.74311188  0.61368778  1 -0.027154
  C  C47  1  0.43053369  0.16285255  0.97607370  1 0.582954
  C  C48  1  0.38630468  0.25690810  0.38625191  1 -0.027158
  C  C49  1  0.30001669  0.97035718  0.42963040  1 -0.078692
  C  C50  1  0.57036665  0.70000943  0.69998267  1 -0.07887
  C  C51  1  0.38630517  0.25687699  0.97052670  1 -0.027464
  C  C52  1  0.97052863  0.38629632  0.25687335  1 -0.028286
  C  C53  1  0.56946390  0.56947318  0.02393776  1 0.58266
  C  C54  1  0.43053384  0.97607443  0.16284444  1 0.583007
  C  C55  1  0.30001287  0.29999994  0.97035377  1 -0.07842
  C  C56  1  0.30001173  0.42963066  0.97035928  1 -0.07819
  C  C57  1  0.02964339  0.70000533  0.69998414  1 -0.078349
  C  C58  1  0.38630671  0.97052599  0.25687038  1 -0.027813
  C  C59  1  0.70003355  0.02964253  0.57034730  1 -0.078363
  C  C60  1  0.97606372  0.43053359  0.16286364  1 0.582562
  C  C61  1  0.57036316  0.02964643  0.69998706  1 -0.078978
  C  C62  1  0.61370536  0.61371064  0.02946792  1 -0.028231
  C  C63  1  0.56944439  0.02393454  0.56953272  1 0.581302
  C  C64  1  0.02964400  0.57036735  0.69998951  1 -0.078535
  C  C65  1  0.97035806  0.30000169  0.42963819  1 -0.078381
  C  C66  1  0.16288353  0.97606622  0.43052715  1 0.58247
  C  C67  1  0.43053547  0.43053193  0.97606204  1 0.58267
  C  C68  1  0.02393486  0.83713559  0.56946253  1 0.58249
  C  C69  1  0.74310312  0.61374045  0.61369401  1 -0.027307
  C  C70  1  0.02947282  0.61371543  0.74310789  1 -0.028082
  C  C71  1  0.43047200  0.97606724  0.43055271  1 0.58126
  C  C72  1  0.83712588  0.56946530  0.02393667  1 0.58243
  C  C73  1  0.74314394  0.02947109  0.61369723  1 -0.028947
  C  C74  1  0.83709223  0.56944817  0.56951889  1 0.582372
  C  C75  1  0.56945124  0.02392632  0.83714364  1 0.582765
  C  C76  1  0.83713158  0.02393442  0.56946579  1 0.582469
  C  C77  1  0.57036003  0.70000255  0.02964349  1 -0.078464
  C  C78  1  0.61371035  0.61371700  0.74310563  1 -0.028106
  C  C79  1  0.30002746  0.42963982  0.29997345  1 -0.07847
  C  C80  1  0.16292007  0.43046736  0.43055469  1 0.581993
  C  C81  1  0.97605997  0.43047744  0.43054721  1 0.582201
  C  C82  1  0.61370376  0.74312311  0.02947328  1 -0.02758
  C  C83  1  0.56945274  0.83714784  0.02392557  1 0.583058
  C  C84  1  0.16287804  0.43052670  0.97606336  1 0.582376
  C  C85  1  0.43054501  0.43054111  0.16285337  1 0.582696
  C  C86  1  0.97053738  0.38629026  0.38626092  1 -0.02773
  C  C87  1  0.02947009  0.74314719  0.61369601  1 -0.02859
  C  C88  1  0.97052992  0.25687265  0.38630647  1 -0.0293
  C  C89  1  0.70000761  0.02964476  0.69998599  1 -0.078297
  C  C90  1  0.42966462  0.97035474  0.29997177  1 -0.078915
  C  C91  1  0.61371135  0.02947385  0.74310409  1 -0.027472
  C  C92  1  0.38630947  0.97053697  0.38625270  1 -0.02736
  C  C93  1  0.70000340  0.57036873  0.69998727  1 -0.078464
  C  C94  1  0.97035873  0.42964749  0.29997933  1 -0.078494
  C  C95  1  0.25692473  0.38628373  0.38625573  1 -0.027027
  C  C96  1  0.56945951  0.56947180  0.83713022  1 0.582421
  C  C97  1  0.42965100  0.29999801  0.97035668  1 -0.079042
  C  C98  1  0.97035733  0.30000019  0.30000846  1 -0.078019
  C  C99  1  0.02946308  0.61375094  0.61369849  1 -0.027739
  C  C100  1  0.69999846  0.69999951  0.02964600  1 -0.078457
  C  C101  1  0.61375019  0.02946268  0.61369493  1 -0.027529
  C  C102  1  0.02394130  0.56945386  0.56952128  1 0.582303
  C  C103  1  0.25688875  0.97052952  0.38629912  1 -0.02893
  C  C104  1  0.74311877  0.61371303  0.02947221  1 -0.027884
  C  C105  1  0.56943956  0.83710080  0.56952578  1 0.581371
  C  C106  1  0.69999739  0.57036848  0.02964126  1 -0.078788
  C  C107  1  0.97606638  0.16287065  0.43053403  1 0.582624
  O  O108  1  0.02073358  0.61383902  0.87359521  1 -0.51059
  O  O109  1  0.49182093  0.61388156  0.87355824  1 -0.510207
  O  O110  1  0.38615485  0.12641243  0.97926427  1 -0.511629
  O  O111  1  0.50816393  0.97927516  0.12639117  1 -0.510495
  O  O112  1  0.12650300  0.50812474  0.38613006  1 -0.510735
  O  O113  1  0.97926058  0.38614468  0.12643501  1 -0.509674
  O  O114  1  0.12643986  0.38614342  0.97926104  1 -0.509624
  O  O115  1  0.12644752  0.97926381  0.38615422  1 -0.51118
  O  O116  1  0.61386638  0.49182898  0.87356977  1 -0.50937
  O  O117  1  0.02073316  0.87360352  0.61383507  1 -0.50952
  O  O118  1  0.87356925  0.02073830  0.49184900  1 -0.511154
  O  O119  1  0.12640449  0.97926914  0.50816863  1 -0.509521
  O  O120  1  0.97927045  0.12639877  0.50817133  1 -0.509633
  O  O121  1  0.02074230  0.49184302  0.87355932  1 -0.50973
  O  O122  1  0.50819176  0.38613342  0.12640930  1 -0.5095
  O  O123  1  0.49184982  0.87350529  0.61388100  1 -0.507841
  O  O124  1  0.61382640  0.87360749  0.02072459  1 -0.510559
  O  O125  1  0.50812651  0.97925919  0.38615087  1 -0.508617
  O  O126  1  0.49185020  0.02076593  0.61387756  1 -0.507744
  O  O127  1  0.97926501  0.12643585  0.38615651  1 -0.511184
  O  O128  1  0.38612524  0.50817291  0.12644327  1 -0.510129
  O  O129  1  0.49182764  0.87359373  0.02073248  1 -0.511663
  O  O130  1  0.61384566  0.02074783  0.49187406  1 -0.508731
  O  O131  1  0.38615258  0.97926531  0.12641250  1 -0.511624
  O  O132  1  0.97924849  0.50813706  0.38613433  1 -0.510715
  O  O133  1  0.02073675  0.87357134  0.49184977  1 -0.511152
  O  O134  1  0.02076223  0.49185362  0.61388515  1 -0.510395
  O  O135  1  0.12650186  0.38610136  0.50815806  1 -0.50998
  O  O136  1  0.50816278  0.12638767  0.97927532  1 -0.510437
  O  O137  1  0.50818435  0.38614142  0.97926603  1 -0.50954
  O  O138  1  0.38611547  0.12650014  0.50815028  1 -0.507878
  O  O139  1  0.38612355  0.97923865  0.50814793  1 -0.507845
  O  O140  1  0.12640458  0.50816444  0.97926534  1 -0.51072
  O  O141  1  0.87359836  0.61383793  0.02073237  1 -0.510723
  O  O142  1  0.02075719  0.61386532  0.49185574  1 -0.510711
  O  O143  1  0.87349567  0.49185102  0.61389006  1 -0.510285
  O  O144  1  0.50812456  0.12647411  0.38614752  1 -0.50861
  O  O145  1  0.49182481  0.02073459  0.87358703  1 -0.511516
  O  O146  1  0.38613247  0.50817155  0.97926102  1 -0.51041
  O  O147  1  0.87356336  0.49184445  0.02074153  1 -0.509725
  O  O148  1  0.61385734  0.49182649  0.02073201  1 -0.509561
  O  O149  1  0.97923962  0.38611256  0.50815147  1 -0.510309
  O  O150  1  0.87351719  0.61387157  0.49185483  1 -0.510694
  O  O151  1  0.87359803  0.02073267  0.61383608  1 -0.509556
  O  O152  1  0.49182302  0.61387279  0.02073844  1 -0.510381
  O  O153  1  0.97926598  0.50816877  0.12640441  1 -0.510622
  O  O154  1  0.61382787  0.02072676  0.87359417  1 -0.510453
  O  O155  1  0.61385220  0.87353118  0.49187128  1 -0.508467
