# generated using pymatgen
data_AlC8O5
_symmetry_space_group_name_H-M   'P 1'
_cell_length_a   6.71635365
_cell_length_b   17.32785518
_cell_length_c   12.87007895
_cell_angle_alpha   89.83867473
_cell_angle_beta   90.07777045
_cell_angle_gamma   89.93062586
_symmetry_Int_Tables_number   1
_chemical_formula_structural   AlC8O5
_chemical_formula_sum   'Al4 C32 O20'
_cell_volume   1497.81140846
_cell_formula_units_Z   4
loop_
 _symmetry_equiv_pos_site_id
 _symmetry_equiv_pos_as_xyz
  1  'x, y, z'
loop_
 _atom_site_type_symbol
 _atom_site_label
 _atom_site_symmetry_multiplicity
 _atom_site_fract_x
 _atom_site_fract_y
 _atom_site_fract_z
 _atom_site_occupancy
 _atom_site_charge
  Al  Al0  1  0.24951342  0.25133429  0.75367671  1 1.563449
  Al  Al1  1  0.75025172  0.25174241  0.75334345  1 1.562489
  Al  Al2  1  0.75049405  0.74866848  0.24632756  1 1.563343
  Al  Al3  1  0.24973728  0.74826050  0.24665886  1 1.562607
  C  C4  1  0.83340038  0.03035548  0.97309405  1 0.002601
  C  C5  1  0.33962963  0.53127430  0.47192964  1 0.026881
  C  C6  1  0.16697083  0.46989458  0.97308082  1 -0.00076
  C  C7  1  0.66135827  0.96844351  0.47186191  1 0.015832
  C  C8  1  0.16684890  0.53008019  0.02694255  1 0.000457
  C  C9  1  0.66154366  0.03149614  0.52802857  1 0.01572
  C  C10  1  0.83303152  0.96985072  0.02671564  1 -0.000133
  C  C11  1  0.33397307  0.46929741  0.52745516  1 0.017316
  C  C12  1  0.16659602  0.96964118  0.02690550  1 0.002565
  C  C13  1  0.66036795  0.46872392  0.52807266  1 0.026849
  C  C14  1  0.83302091  0.53010122  0.02691754  1 -0.000769
  C  C15  1  0.33864069  0.03155409  0.52813935  1 0.015839
  C  C16  1  0.83315938  0.46991556  0.97305583  1 0.000435
  C  C17  1  0.33846101  0.96850164  0.47197246  1 0.015706
  C  C18  1  0.16697009  0.03014599  0.97328373  1 -0.000187
  C  C19  1  0.66602678  0.53070059  0.47254676  1 0.017367
  C  C20  1  0.00021594  0.07151801  0.93646953  1 0.011565
  C  C21  1  0.00028538  0.14210722  0.87114666  1 0.62367
  C  C22  1  0.50328596  0.57304039  0.43467580  1 -0.024371
  C  C23  1  0.50215131  0.64346632  0.36910473  1 0.645532
  C  C24  1  0.00008985  0.42871037  0.93644228  1 0.008063
  C  C25  1  0.00006568  0.35778132  0.87271914  1 0.633157
  C  C26  1  0.49984191  0.92631114  0.43417702  1 -0.021435
  C  C27  1  0.49995498  0.85650442  0.36678046  1 0.641631
  C  C28  1  -0.00009000  0.57128823  0.06355445  1 0.008189
  C  C29  1  -0.00006657  0.64222031  0.12727556  1 0.633276
  C  C30  1  0.50016002  0.07368751  0.56582303  1 -0.021352
  C  C31  1  0.50004638  0.14349681  0.63321688  1 0.641601
  C  C32  1  -0.00021695  0.92848084  0.06353127  1 0.01155
  C  C33  1  -0.00028723  0.85789462  0.12885622  1 0.623718
  C  C34  1  0.49671290  0.42695660  0.56532866  1 -0.024316
  C  C35  1  0.49784911  0.35653027  0.63089881  1 0.645487
  O  O36  1  0.17010046  0.16845309  0.84707742  1 -0.525853
  O  O37  1  0.67255973  0.66958962  0.34524285  1 -0.555891
  O  O38  1  0.82881412  0.33156324  0.84931897  1 -0.558373
  O  O39  1  0.33027209  0.83070322  0.34219815  1 -0.52207
  O  O40  1  0.82875974  0.66867928  0.15038354  1 -0.558258
  O  O41  1  0.33011281  0.16874446  0.65843096  1 -0.521679
  O  O42  1  0.16946677  0.83143950  0.15334744  1 -0.523964
  O  O43  1  0.66985165  0.33132987  0.65471577  1 -0.55591
  O  O44  1  0.82989694  0.83154619  0.15292567  1 -0.52584
  O  O45  1  0.32743894  0.33040847  0.65475712  1 -0.555869
  O  O46  1  0.17118161  0.66843893  0.15067229  1 -0.55846
  O  O47  1  0.66973109  0.16929688  0.65779719  1 -0.522056
  O  O48  1  0.17124328  0.33132117  0.84961310  1 -0.558188
  O  O49  1  0.66988704  0.83125454  0.34156635  1 -0.521649
  O  O50  1  0.83053383  0.16856209  0.84665794  1 -0.523957
  O  O51  1  0.33015127  0.66866905  0.34528343  1 -0.555969
  O  O52  1  -0.00024100  0.24652704  0.69800079  1 -0.69771
  O  O53  1  0.49973574  0.75404200  0.19225323  1 -0.702002
  O  O54  1  0.00024379  0.75349209  0.30200008  1 -0.697753
  O  O55  1  0.50026584  0.24596268  0.80774847  1 -0.702119
