# generated using pymatgen
data_AlC8O4F
_symmetry_space_group_name_H-M   'P 1'
_cell_length_a   6.70949459
_cell_length_b   16.74013695
_cell_length_c   13.20170044
_cell_angle_alpha   90.00000000
_cell_angle_beta   90.00000000
_cell_angle_gamma   90.00000000
_symmetry_Int_Tables_number   1
_chemical_formula_structural   AlC8O4F
_chemical_formula_sum   'Al4 C32 O16 F4'
_cell_volume   1482.78671851
_cell_formula_units_Z   4
loop_
 _symmetry_equiv_pos_site_id
 _symmetry_equiv_pos_as_xyz
  1  'x, y, z'
loop_
 _atom_site_type_symbol
 _atom_site_label
 _atom_site_symmetry_multiplicity
 _atom_site_fract_x
 _atom_site_fract_y
 _atom_site_fract_z
 _atom_site_occupancy
 _atom_site_charge
  Al  Al0  1  0.25000000  0.25000000  0.75000000  1 1.615733
  Al  Al1  1  0.75000000  0.25000000  0.75000000  1 1.615738
  Al  Al2  1  0.75000000  0.75000000  0.25000000  1 1.615733
  Al  Al3  1  0.25000000  0.75000000  0.25000000  1 1.615738
  C  C4  1  0.83219079  0.03006352  0.97188767  1 -0.009774
  C  C5  1  0.33219079  0.53006352  0.47188767  1 -0.009774
  C  C6  1  0.16780921  0.46993648  0.97188767  1 -0.009775
  C  C7  1  0.66780921  0.96993648  0.47188767  1 -0.009775
  C  C8  1  0.16780921  0.53006352  0.02811233  1 -0.009697
  C  C9  1  0.66780921  0.03006352  0.52811233  1 -0.009697
  C  C10  1  0.83219079  0.96993648  0.02811233  1 -0.009697
  C  C11  1  0.33219079  0.46993648  0.52811233  1 -0.009697
  C  C12  1  0.16780921  0.96993648  0.02811233  1 -0.009775
  C  C13  1  0.66780921  0.46993648  0.52811233  1 -0.009775
  C  C14  1  0.83219079  0.53006352  0.02811233  1 -0.009776
  C  C15  1  0.33219079  0.03006352  0.52811233  1 -0.009776
  C  C16  1  0.83219079  0.46993648  0.97188767  1 -0.009697
  C  C17  1  0.33219079  0.96993648  0.47188767  1 -0.009697
  C  C18  1  0.16780921  0.03006352  0.97188767  1 -0.009697
  C  C19  1  0.66780921  0.53006352  0.47188767  1 -0.009697
  C  C20  1  0.00000000  0.07095254  0.93362694  1 0.007893
  C  C21  1  0.00000000  0.14177833  0.86686360  1 0.65061
  C  C22  1  0.50000000  0.57095254  0.43362694  1 0.007893
  C  C23  1  0.50000000  0.64177833  0.36686360  1 0.65061
  C  C24  1  0.00000000  0.42904746  0.93362694  1 0.007893
  C  C25  1  0.00000000  0.35822167  0.86686360  1 0.650611
  C  C26  1  0.50000000  0.92904746  0.43362694  1 0.007893
  C  C27  1  0.50000000  0.85822167  0.36686360  1 0.650611
  C  C28  1  0.00000000  0.57095254  0.06637306  1 0.007894
  C  C29  1  0.00000000  0.64177833  0.13313640  1 0.65061
  C  C30  1  0.50000000  0.07095254  0.56637306  1 0.007894
  C  C31  1  0.50000000  0.14177833  0.63313640  1 0.65061
  C  C32  1  0.00000000  0.92904746  0.06637306  1 0.007893
  C  C33  1  0.00000000  0.85822167  0.13313640  1 0.650611
  C  C34  1  0.50000000  0.42904746  0.56637306  1 0.007893
  C  C35  1  0.50000000  0.35822167  0.63313640  1 0.650611
  O  O36  1  0.17009604  0.16879913  0.84158531  1 -0.588295
  O  O37  1  0.67009604  0.66879913  0.34158531  1 -0.588295
  O  O38  1  0.82990396  0.33120087  0.84158531  1 -0.588296
  O  O39  1  0.32990396  0.83120087  0.34158531  1 -0.588296
  O  O40  1  0.82990396  0.66879913  0.15841469  1 -0.588292
  O  O41  1  0.32990396  0.16879913  0.65841469  1 -0.588292
  O  O42  1  0.17009604  0.83120087  0.15841469  1 -0.588292
  O  O43  1  0.67009604  0.33120087  0.65841469  1 -0.588292
  O  O44  1  0.82990396  0.83120087  0.15841469  1 -0.588295
  O  O45  1  0.32990396  0.33120087  0.65841469  1 -0.588295
  O  O46  1  0.17009604  0.66879913  0.15841469  1 -0.588295
  O  O47  1  0.67009604  0.16879913  0.65841469  1 -0.588295
  O  O48  1  0.17009604  0.33120087  0.84158531  1 -0.588292
  O  O49  1  0.67009604  0.83120087  0.34158531  1 -0.588292
  O  O50  1  0.82990396  0.16879913  0.84158531  1 -0.588292
  O  O51  1  0.32990396  0.66879913  0.34158531  1 -0.588292
  F  F52  1  0.00000000  0.25000000  0.69122388  1 -0.540625
  F  F53  1  0.50000000  0.75000000  0.19122388  1 -0.540625
  F  F54  1  0.00000000  0.75000000  0.30877612  1 -0.540625
  F  F55  1  0.50000000  0.25000000  0.80877612  1 -0.540625
