# generated using pymatgen
data_AlC8O5
_symmetry_space_group_name_H-M   'P 1'
_cell_length_a   6.69656583
_cell_length_b   17.27018677
_cell_length_c   12.95765198
_cell_angle_alpha   89.96057809
_cell_angle_beta   90.01814362
_cell_angle_gamma   89.97663218
_symmetry_Int_Tables_number   1
_chemical_formula_structural   AlC8O5
_chemical_formula_sum   'Al4 C32 O20'
_cell_volume   1498.56411069
_cell_formula_units_Z   4
loop_
 _symmetry_equiv_pos_site_id
 _symmetry_equiv_pos_as_xyz
  1  'x, y, z'
loop_
 _atom_site_type_symbol
 _atom_site_label
 _atom_site_symmetry_multiplicity
 _atom_site_fract_x
 _atom_site_fract_y
 _atom_site_fract_z
 _atom_site_occupancy
 _atom_site_charge
  Al  Al0  1  0.24994685  0.25264056  0.75020373  1 1.551396
  Al  Al1  1  0.74990703  0.25256638  0.75026058  1 1.551579
  Al  Al2  1  0.75003394  0.74738155  0.24979506  1 1.551187
  Al  Al3  1  0.25011195  0.74745514  0.24973995  1 1.55163
  C  C4  1  0.83881058  0.03085313  0.97213300  1 0.025813
  C  C5  1  0.33302692  0.53011213  0.47275542  1 0.004314
  C  C6  1  0.16719206  0.46994891  0.97280890  1 0.002311
  C  C7  1  0.66211217  0.96853546  0.47168444  1 0.015048
  C  C8  1  0.16720811  0.53002137  0.02715565  1 0.002056
  C  C9  1  0.66211610  0.03145139  0.52830290  1 0.015275
  C  C10  1  0.83469968  0.96903903  0.02796780  1 0.01657
  C  C11  1  0.33289896  0.46997033  0.52717438  1 0.002759
  C  C12  1  0.16119319  0.96915084  0.02786492  1 0.025729
  C  C13  1  0.66696045  0.46989267  0.52724488  1 0.004421
  C  C14  1  0.83281505  0.53005244  0.02718815  1 0.002476
  C  C15  1  0.33788415  0.03146722  0.52831674  1 0.014886
  C  C16  1  0.83278248  0.46997971  0.97284146  1 0.001931
  C  C17  1  0.33788580  0.96855133  0.47169832  1 0.015385
  C  C18  1  0.16529565  0.03096507  0.97202991  1 0.016657
  C  C19  1  0.66711361  0.53003412  0.47282598  1 0.002666
  C  C20  1  0.00179138  0.07295516  0.93416990  1 -0.017863
  C  C21  1  0.00062660  0.14346052  0.86865584  1 0.633121
  C  C22  1  0.50010264  0.57121314  0.43559324  1 0.009542
  C  C23  1  0.50010666  0.64133246  0.36995850  1 0.631091
  C  C24  1  -0.00003514  0.42891233  0.93568019  1 0.009859
  C  C25  1  -0.00002407  0.35878831  0.87013752  1 0.631281
  C  C26  1  0.49999881  0.92646154  0.43387943  1 -0.02174
  C  C27  1  0.50002801  0.85608914  0.36791657  1 0.644118
  C  C28  1  0.00003337  0.57108956  0.06431812  1 0.00982
  C  C29  1  0.00002576  0.64121594  0.12987553  1 0.631159
  C  C30  1  0.50000051  0.07354296  0.56612443  1 -0.021804
  C  C31  1  0.49997155  0.14391594  0.63209845  1 0.644307
  C  C32  1  -0.00179070  0.92704869  0.06582655  1 -0.017759
  C  C33  1  -0.00062349  0.85653713  0.13133699  1 0.633214
  C  C34  1  0.49989732  0.42879083  0.56440784  1 0.009422
  C  C35  1  0.49989390  0.35867391  0.63002776  1 0.631173
  O  O36  1  0.17093593  0.16968055  0.84462983  1 -0.532103
  O  O37  1  0.67125484  0.66740534  0.34576424  1 -0.552179
  O  O38  1  0.82880559  0.33260324  0.84598786  1 -0.549855
  O  O39  1  0.32941828  0.83021139  0.34364791  1 -0.533105
  O  O40  1  0.82885622  0.66731725  0.15411023  1 -0.549482
  O  O41  1  0.32936096  0.16979562  0.65634351  1 -0.532719
  O  O42  1  0.17068736  0.83082962  0.15510920  1 -0.53261
  O  O43  1  0.67115497  0.33257936  0.65426844  1 -0.552543
  O  O44  1  0.82906319  0.83031971  0.15535991  1 -0.532283
  O  O45  1  0.32873621  0.33258934  0.65422599  1 -0.552321
  O  O46  1  0.17118853  0.66739282  0.15402672  1 -0.549745
  O  O47  1  0.67057757  0.16978475  0.65636400  1 -0.532895
  O  O48  1  0.17114991  0.33268086  0.84590369  1 -0.549653
  O  O49  1  0.67064279  0.83020053  0.34366996  1 -0.532917
  O  O50  1  0.82931488  0.16916934  0.84487940  1 -0.532374
  O  O51  1  0.32885323  0.66741543  0.34572237  1 -0.552365
  O  O52  1  -0.00018510  0.25068813  0.69311306  1 -0.687523
  O  O53  1  0.49997554  0.75045300  0.19231671  1 -0.68461
  O  O54  1  0.00018517  0.74928404  0.30691547  1 -0.687145
  O  O55  1  0.50002607  0.24950333  0.80764249  1 -0.684604
