# generated using pymatgen
data_CuH28(C5N2)4
_symmetry_space_group_name_H-M   'P 1'
_cell_length_a   9.79486100
_cell_length_b   13.93802400
_cell_length_c   24.00088923
_cell_angle_alpha   89.99999931
_cell_angle_beta   99.71668719
_cell_angle_gamma   90.00000411
_symmetry_Int_Tables_number   1
_chemical_formula_structural   CuH28(C5N2)4
_chemical_formula_sum   'Cu4 H112 C80 N32'
_cell_volume   3229.62027673
_cell_formula_units_Z   4
loop_
 _symmetry_equiv_pos_site_id
 _symmetry_equiv_pos_as_xyz
  1  'x, y, z'
loop_
 _atom_site_type_symbol
 _atom_site_label
 _atom_site_symmetry_multiplicity
 _atom_site_fract_x
 _atom_site_fract_y
 _atom_site_fract_z
 _atom_site_occupancy
 _atom_site_charge
  Cu  Cu0  1  0.39842246  0.75798886  0.73361752  1 0.279872
  Cu  Cu1  1  0.10228027  0.26055540  0.76753902  1 0.280055
  Cu  Cu2  1  0.60043408  0.23822865  0.26814819  1 0.280272
  Cu  Cu3  1  0.89706399  0.74009890  0.23677096  1 0.280368
  H  H4  1  0.75288062  0.51645533  0.83664263  1 0.101715
  H  H5  1  0.56869427  0.66512805  0.84799014  1 0.010835
  H  H6  1  0.76542530  0.89908046  0.57399819  1 0.102899
  H  H7  1  0.41890088  0.71888672  0.52563909  1 0.020361
  H  H8  1  0.22605786  0.34054805  0.65382447  1 0.015286
  H  H9  1  0.81478213  0.51529854  0.68762612  1 0.062401
  H  H10  1  0.86238415  0.45993561  0.75488158  1 0.0819
  H  H11  1  0.61836321  0.44220378  0.61651258  1 0.05882
  H  H12  1  0.49945678  0.46225265  0.66321173  1 0.091204
  H  H13  1  0.57053669  0.26712211  0.61600482  1 0.044248
  H  H14  1  0.41895485  0.33591923  0.59179011  1 0.041492
  H  H15  1  0.53456134  0.00872865  0.44077122  1 0.091722
  H  H16  1  0.65176772  0.00661647  0.50496804  1 0.071329
  H  H17  1  0.58715359  0.17727729  0.71132966  1 0.108237
  H  H18  1  0.59025175  0.63069174  0.67455768  1 0.0941
  H  H19  1  0.38680064  0.13763382  0.77823940  1 0.093928
  H  H20  1  0.99320998  0.86070564  0.56262115  1 0.061988
  H  H21  1  0.96206402  0.97670484  0.58911902  1 0.07314
  H  H22  1  0.11975561  0.04715412  0.52572989  1 0.055729
  H  H23  1  0.13490436  0.93019757  0.49721019  1 0.026032
  H  H24  1  0.18118311  0.76858651  0.61816127  1 0.066887
  H  H25  1  0.20547174  0.07075361  0.63748321  1 0.10675
  H  H26  1  0.64815329  0.35950896  0.73714297  1 0.088296
  H  H27  1  0.76387782  0.33881952  0.68928654  1 0.075491
  H  H28  1  0.74360441  0.77085264  0.66097215  1 0.090564
  H  H29  1  0.63548986  0.84833033  0.45401444  1 0.045507
  H  H30  1  0.45583097  0.84303864  0.45733835  1 0.047876
  H  H31  1  0.40706848  0.98536085  0.71666340  1 0.089149
  H  H32  1  0.75916619  0.01608273  0.66070121  1 0.101743
  H  H33  1  0.94503521  0.16472736  0.65229779  1 0.010405
  H  H34  1  0.73943485  0.41608886  0.92077456  1 0.102939
  H  H35  1  0.05634661  0.21388619  0.97310072  1 0.021198
  H  H36  1  0.27155840  0.84106272  0.84601935  1 0.014383
  H  H37  1  0.68160639  0.01709040  0.80822067  1 0.061486
  H  H38  1  0.63686339  0.96231965  0.74065023  1 0.081818
  H  H39  1  0.87619884  0.94391004  0.88042220  1 0.059052
  H  H40  1  0.99661371  0.96374892  0.83432205  1 0.091188
  H  H41  1  0.92463489  0.76884342  0.88175951  1 0.044342
  H  H42  1  0.07546367  0.83808449  0.90625959  1 0.041316
  H  H43  1  0.95943694  0.50975320  0.05943682  1 0.091686
  H  H44  1  0.84427035  0.51288209  0.99489235  1 0.071377
  H  H45  1  0.91030997  0.67924137  0.78620741  1 0.108117
  H  H46  1  0.90084308  0.13442346  0.82378553  1 0.094066
  H  H47  1  0.11351507  0.63860872  0.72087041  1 0.094409
  H  H48  1  0.51386932  0.37817987  0.93363903  1 0.061769
  H  H49  1  0.53296341  0.49552136  0.90647060  1 0.073105
  H  H50  1  0.37617147  0.55945666  0.97161024  1 0.05566
  H  H51  1  0.36938444  0.44161328  0.00029292  1 0.02611
  H  H52  1  0.33443067  0.27855367  0.87841263  1 0.065998
  H  H53  1  0.27767816  0.57925987  0.86157656  1 0.106726
  H  H54  1  0.84956107  0.86058150  0.76000359  1 0.088225
  H  H55  1  0.73194563  0.84070646  0.80719471  1 0.075388
  H  H56  1  0.75264065  0.28630179  0.83366009  1 0.090513
  H  H57  1  0.85069448  0.35259849  0.04202550  1 0.045455
  H  H58  1  0.03130255  0.34337208  0.04099720  1 0.047959
  H  H59  1  0.07859960  0.48664129  0.78477040  1 0.089109
  H  H60  1  0.25272007  0.48739915  0.16851328  1 0.101736
  H  H61  1  0.43635431  0.33927652  0.15562443  1 0.010538
  H  H62  1  0.23650981  0.08312527  0.42114838  1 0.102868
  H  H63  1  0.55471858  0.28248014  0.47764381  1 0.019447
  H  H64  1  0.78281166  0.67357973  0.35613679  1 0.01564
  H  H65  1  0.19080120  0.48176580  0.31824761  1 0.064076
  H  H66  1  0.13941617  0.53838849  0.25160618  1 0.082018
  H  H67  1  0.38943731  0.55578748  0.38863523  1 0.059886
  H  H68  1  0.50685017  0.53918452  0.34081026  1 0.091087
  H  H69  1  0.42940666  0.73238194  0.38836195  1 0.044289
  H  H70  1  0.58300069  0.66619077  0.41331922  1 0.04065
  H  H71  1  0.45463528  0.98384144  0.55911097  1 0.091812
  H  H72  1  0.33744782  0.98414334  0.49508404  1 0.071326
  H  H73  1  0.40596543  0.81190485  0.28807318  1 0.108156
  H  H74  1  0.40927353  0.36523606  0.32913166  1 0.094024
  H  H75  1  0.60317372  0.84820747  0.21943012  1 0.094623
  H  H76  1  0.01250713  0.10999295  0.42988539  1 0.062005
  H  H77  1  0.03128499  0.99422939  0.40070426  1 0.073142
  H  H78  1  0.87823777  0.92473061  0.46477171  1 0.055691
  H  H79  1  0.86198937  0.04127657  0.49380287  1 0.026044
  H  H80  1  0.83011955  0.21225667  0.37861115  1 0.066789
  H  H81  1  0.78001778  0.91290842  0.35195358  1 0.10675
  H  H82  1  0.35136301  0.64037247  0.26822271  1 0.08834
  H  H83  1  0.23832161  0.65878825  0.31734052  1 0.075691
  H  H84  1  0.25374605  0.21613685  0.33610643  1 0.090502
  H  H85  1  0.34631435  0.14228008  0.54411613  1 0.045531
  H  H86  1  0.52721507  0.15058180  0.54326441  1 0.048052
  H  H87  1  0.57884446  0.00951723  0.27817503  1 0.089068
  H  H88  1  0.25999185  0.97616365  0.33925879  1 0.10174
  H  H89  1  0.07442630  0.82813128  0.34983676  1 0.010218
  H  H90  1  0.26118772  0.58596806  0.08103203  1 0.102884
  H  H91  1  0.94197505  0.78548011  0.02646218  1 0.019941
  H  H92  1  0.72625956  0.15937824  0.15515662  1 0.015017
  H  H93  1  0.31616605  0.98358056  0.19019716  1 0.063577
  H  H94  1  0.36236041  0.03829005  0.25768817  1 0.081984
  H  H95  1  0.11927346  0.05636238  0.11906479  1 0.060785
  H  H96  1  0.99944731  0.03643127  0.16541368  1 0.091105
  H  H97  1  0.07201778  0.23146238  0.11837298  1 0.044485
  H  H98  1  0.92038717  0.16295429  0.09409612  1 0.040511
  H  H99  1  0.04379221  0.49025185  0.94160714  1 0.091753
  H  H100  1  0.15858709  0.48760161  0.00625880  1 0.071387
  H  H101  1  0.08815961  0.32098341  0.21413235  1 0.108111
  H  H102  1  0.08922800  0.86861510  0.17632135  1 0.094051
  H  H103  1  0.88629887  0.36131658  0.28022349  1 0.094947
  H  H104  1  0.48908103  0.62476128  0.06889424  1 0.06175
  H  H105  1  0.46866294  0.50711968  0.09537568  1 0.073137
  H  H106  1  0.62715784  0.44391262  0.03060140  1 0.055626
  H  H107  1  0.63379875  0.56196799  0.00221633  1 0.026223
  H  H108  1  0.66565166  0.72316961  0.12609029  1 0.066238
  H  H109  1  0.72573661  0.42241191  0.13952657  1 0.106751
  H  H110  1  0.14765144  0.13795416  0.23991605  1 0.088296
  H  H111  1  0.26393589  0.15952510  0.19239549  1 0.075676
  H  H112  1  0.24175320  0.71540907  0.16772191  1 0.090476
  H  H113  1  0.15277844  0.64768163  0.95918945  1 0.04541
  H  H114  1  0.97169901  0.65661697  0.95918177  1 0.04814
  H  H115  1  0.92281836  0.51381262  0.21781385  1 0.089042
  C  C116  1  0.69009448  0.56140729  0.80545901  1 -0.144926
  C  C117  1  0.59906860  0.63491283  0.81018398  1 -0.027687
  C  C118  1  0.69186971  0.84240308  0.57734949  1 -0.154468
  C  C119  1  0.51061955  0.74846102  0.55183033  1 0.098949
  C  C120  1  0.29488191  0.29046571  0.67935999  1 0.062911
  C  C121  1  0.77387261  0.48071036  0.72268410  1 -0.053285
  C  C122  1  0.57442601  0.41012768  0.65171161  1 -0.160412
  C  C123  1  0.49723218  0.31914334  0.62915878  1 -0.03543
  C  C124  1  0.55092742  0.97914496  0.48396938  1 -0.166905
  C  C125  1  0.48332779  0.20495886  0.71031281  1 -0.130663
  C  C126  1  0.60810013  0.61934718  0.72024213  1 0.06679
  C  C127  1  0.38257778  0.18610029  0.74256962  1 -0.048701
  C  C128  1  0.03760171  0.93279250  0.57108996  1 -0.048357
  C  C129  1  0.06585317  0.97803301  0.51630384  1 -0.154178
  C  C130  1  0.21768944  0.83787948  0.63516532  1 0.078846
  C  C131  1  0.23216684  0.99581854  0.64521293  1 -0.10402
  C  C132  1  0.69023523  0.39145701  0.70164934  1 -0.166356
  C  C133  1  0.67865308  0.77814727  0.61976890  1 -0.058845
  C  C134  1  0.55624599  0.87030932  0.47915885  1 -0.040346
  C  C135  1  0.33144196  0.95208805  0.68435386  1 -0.056011
  C  C136  1  0.81789076  0.06187460  0.69261911  1 -0.144978
  C  C137  1  0.90973609  0.13539848  0.68931228  1 -0.027568
  C  C138  1  0.80582107  0.35484883  0.91813630  1 -0.154526
  C  C139  1  0.97149770  0.24937820  0.94579628  1 0.098646
  C  C140  1  0.20300505  0.79127066  0.82009014  1 0.063376
  C  C141  1  0.72414901  0.98252501  0.77358878  1 -0.053144
  C  C142  1  0.92118694  0.91166730  0.84554125  1 -0.160414
  C  C143  1  0.99811352  0.82085545  0.86868039  1 -0.035428
  C  C144  1  0.94364202  0.48271001  0.01567545  1 -0.166918
  C  C145  1  0.01451409  0.70662401  0.78784804  1 -0.130697
  C  C146  1  0.88919330  0.12180720  0.77827536  1 0.06682
  C  C147  1  0.11668282  0.68721789  0.75639355  1 -0.04896
  C  C148  1  0.46297610  0.44830154  0.92547070  1 -0.048301
  C  C149  1  0.43426593  0.49185354  0.98070397  1 -0.154231
  C  C150  1  0.28918796  0.34637183  0.86261545  1 0.079264
  C  C151  1  0.25759236  0.50344556  0.85388242  1 -0.103968
  C  C152  1  0.80652162  0.89294844  0.79514868  1 -0.166338
  C  C153  1  0.81444334  0.28960694  0.87570351  1 -0.059048
  C  C154  1  0.93357783  0.37367903  0.01845648  1 -0.04039
  C  C155  1  0.15985136  0.45613216  0.81584514  1 -0.056151
  C  C156  1  0.31456990  0.44110201  0.19923841  1 -0.144926
  C  C157  1  0.40527986  0.36776493  0.19371509  1 -0.027498
  C  C158  1  0.30350203  0.14446854  0.41980712  1 -0.15445
  C  C159  1  0.46985229  0.24840391  0.44960123  1 0.099337
  C  C160  1  0.70887458  0.71552675  0.32717516  1 0.06263
  C  C161  1  0.22944062  0.51763583  0.28308958  1 -0.0537
  C  C162  1  0.43056198  0.58940956  0.35317453  1 -0.160774
  C  C163  1  0.50491086  0.68157450  0.37567487  1 -0.035125
  C  C164  1  0.43761824  0.01303833  0.51581840  1 -0.166886
  C  C165  1  0.51219916  0.78793681  0.29073722  1 -0.130805
  C  C166  1  0.39420333  0.37919530  0.28368020  1 0.066676
  C  C167  1  0.61173430  0.80571941  0.25777595  1 -0.048923
  C  C168  1  0.96124576  0.04031021  0.42036754  1 -0.048344
  C  C169  1  0.93157857  0.99401258  0.47467853  1 -0.154204
  C  C170  1  0.78611296  0.14545207  0.36061641  1 0.078451
  C  C171  1  0.75810057  0.98897994  0.34670730  1 -0.10403
  C  C172  1  0.31214823  0.60725048  0.30405575  1 -0.166397
  C  C173  1  0.31426585  0.21115278  0.37834517  1 -0.058716
  C  C174  1  0.42898481  0.12178407  0.52029898  1 -0.040381
  C  C175  1  0.65926716  0.03836259  0.31025293  1 -0.056182
  C  C176  1  0.19461877  0.93329191  0.30772274  1 -0.144941
  C  C177  1  0.10313522  0.85993924  0.31213507  1 -0.027387
  C  C178  1  0.19346138  0.64669762  0.08312529  1 -0.154575
  C  C179  1  0.02648330  0.75069781  0.05433568  1 0.099236
  C  C180  1  0.79515129  0.20905807  0.18096852  1 0.06305
  C  C181  1  0.27445332  0.01742121  0.22525592  1 -0.05359
  C  C182  1  0.07499375  0.08837794  0.15418750  1 -0.161009
  C  C183  1  0.99849906  0.17959086  0.13153629  1 -0.03502
  C  C184  1  0.05923361  0.51757402  0.98530678  1 -0.166898
  C  C185  1  0.98405793  0.29355439  0.21278786  1 -0.130808
  C  C186  1  0.10717261  0.87940293  0.22206576  1 0.066687
  C  C187  1  0.88254704  0.31279774  0.24462009  1 -0.04908
  C  C188  1  0.53942998  0.55442816  0.07686307  1 -0.048331
  C  C189  1  0.56886813  0.51145452  0.02159467  1 -0.154291
  C  C190  1  0.71138820  0.65513868  0.14119756  1 0.078804
  C  C191  1  0.74475891  0.49808215  0.14815310  1 -0.104014
  C  C192  1  0.19027766  0.10655704  0.20441213  1 -0.166383
  C  C193  1  0.18171530  0.71175729  0.12534111  1 -0.058856
  C  C194  1  0.06901246  0.62662359  0.98228940  1 -0.040434
  C  C195  1  0.84152430  0.54477457  0.18692486  1 -0.056292
  N  N196  1  0.56558456  0.71974319  0.60344121  1 -0.330934
  N  N197  1  0.54835441  0.67061678  0.75689057  1 -0.260486
  N  N198  1  0.26563588  0.23941941  0.72304742  1 -0.266176
  N  N199  1  0.32148041  0.85348663  0.67811775  1 -0.250035
  N  N200  1  0.16049720  0.92256047  0.61434641  1 0.045113
  N  N201  1  0.58358504  0.82289778  0.53408925  1 0.034628
  N  N202  1  0.69474264  0.55219100  0.74833084  1 0.042601
  N  N203  1  0.42673132  0.27211246  0.67045549  1 0.030845
  N  N204  1  0.91783475  0.22401699  0.89339172  1 -0.330826
  N  N205  1  0.95381677  0.17236523  0.74288562  1 -0.260534
  N  N206  1  0.23364322  0.73997445  0.77671839  1 -0.266278
  N  N207  1  0.18033470  0.35806407  0.82124883  1 -0.250088
  N  N208  1  0.33895183  0.43304600  0.88332344  1 0.045156
  N  N209  1  0.90722371  0.32870595  0.96273803  1 0.034662
  N  N210  1  0.80588755  0.05397589  0.74913211  1 0.042633
  N  N211  1  0.07019616  0.77357213  0.82797505  1 0.030898
  N  N212  1  0.41809182  0.27572950  0.39736414  1 -0.330871
  N  N213  1  0.45441985  0.32948474  0.24654604  1 -0.260554
  N  N214  1  0.73387482  0.76074380  0.28067630  1 -0.266251
  N  N215  1  0.67748880  0.13608342  0.31889265  1 -0.250285
  N  N216  1  0.83787378  0.05771108  0.37833397  1 0.04509
  N  N217  1  0.40384632  0.16887879  0.46520387  1 0.034655
  N  N218  1  0.30864804  0.44756090  0.25637219  1 0.042536
  N  N219  1  0.57448651  0.72936955  0.33437196  1 0.030874
  N  N220  1  0.07752239  0.77642818  0.10694577  1 -0.330974
  N  N221  1  0.04897967  0.82675506  0.25863050  1 -0.260578
  N  N222  1  0.76533455  0.26011980  0.22455071  1 -0.266308
  N  N223  1  0.81988248  0.64279727  0.18258030  1 -0.250283
  N  N224  1  0.66289290  0.56890265  0.11938059  1 0.045106
  N  N225  1  0.09319117  0.67204447  0.03791679  1 0.034687
  N  N226  1  0.19594974  0.94509602  0.25051748  1 0.042499
  N  N227  1  0.92761786  0.22679627  0.17265994  1 0.030863
