# generated using pymatgen
data_CoBH12(C3N2)4
_symmetry_space_group_name_H-M   'P 1'
_cell_length_a   8.30902100
_cell_length_b   15.19440522
_cell_length_c   17.29613600
_cell_angle_alpha   90.00004879
_cell_angle_beta   89.99990393
_cell_angle_gamma   101.77156460
_symmetry_Int_Tables_number   1
_chemical_formula_structural   CoBH12(C3N2)4
_chemical_formula_sum   'Co4 B4 H48 C48 N32'
_cell_volume   2137.72326947
_cell_formula_units_Z   4
loop_
 _symmetry_equiv_pos_site_id
 _symmetry_equiv_pos_as_xyz
  1  'x, y, z'
loop_
 _atom_site_type_symbol
 _atom_site_label
 _atom_site_symmetry_multiplicity
 _atom_site_fract_x
 _atom_site_fract_y
 _atom_site_fract_z
 _atom_site_occupancy
 _atom_site_charge
  Co  Co0  1  0.59875619  0.29270593  0.05624541  1 0.21743
  Co  Co1  1  0.90481838  0.20560909  0.55554148  1 0.217214
  Co  Co2  1  0.39527791  0.70866572  0.94028621  1 0.216991
  Co  Co3  1  0.10923045  0.78603024  0.44071449  1 0.217295
  B  B4  1  0.37805837  0.14065876  0.34554999  1 0.531299
  B  B5  1  0.12469114  0.35546150  0.84546527  1 0.5313
  B  B6  1  0.63791399  0.85162709  0.65114551  1 0.531303
  B  B7  1  0.86738694  0.64574510  0.15196606  1 0.531321
  H  H8  1  0.14312865  0.20703921  0.25657870  1 0.113303
  H  H9  1  0.62002348  0.03217706  0.31900538  1 0.115944
  H  H10  1  0.12211358  0.04849935  0.24247239  1 0.103389
  H  H11  1  0.24301926  0.26019631  0.10801597  1 0.104264
  H  H12  1  0.13434195  0.08888769  0.46476646  1 0.088614
  H  H13  1  0.37639911  0.33134921  0.36066748  1 0.11475
  H  H14  1  0.97010790  0.87985012  0.29454164  1 0.099851
  H  H15  1  0.87486928  0.06117497  0.42432657  1 0.093
  H  H16  1  0.15719319  0.36796376  0.47217112  1 0.105893
  H  H17  1  0.63695867  0.18335275  0.22500706  1 0.081301
  H  H18  1  0.56079765  0.24013647  0.47197759  1 0.084469
  H  H19  1  0.36545398  0.98249049  0.44256609  1 0.083905
  H  H20  1  0.35766171  0.28717294  0.75706871  1 0.113313
  H  H21  1  0.88479864  0.46549019  0.81955509  1 0.115995
  H  H22  1  0.37354210  0.44796865  0.73872228  1 0.103332
  H  H23  1  0.25975964  0.23716508  0.60752737  1 0.104249
  H  H24  1  0.37110957  0.40865349  0.96302929  1 0.088622
  H  H25  1  0.12437619  0.16454014  0.86329612  1 0.114758
  H  H26  1  0.53267444  0.61522344  0.79099229  1 0.099874
  H  H27  1  0.63169820  0.43836219  0.92574730  1 0.093042
  H  H28  1  0.34411942  0.12947048  0.97490610  1 0.105887
  H  H29  1  0.86584287  0.31410709  0.72450880  1 0.081257
  H  H30  1  0.94143067  0.25682409  0.97229720  1 0.084501
  H  H31  1  0.14519488  0.51231491  0.94353446  1 0.083858
  H  H32  1  0.86344385  0.78344641  0.74512936  1 0.113213
  H  H33  1  0.39836802  0.96209205  0.67376511  1 0.115979
  H  H34  1  0.88700687  0.94521106  0.75719516  1 0.103396
  H  H35  1  0.75417259  0.73727841  0.89375161  1 0.104208
  H  H36  1  0.88335654  0.90200287  0.53337704  1 0.088591
  H  H37  1  0.64161041  0.65990406  0.63869401  1 0.11477
  H  H38  1  0.04249526  0.11332417  0.70549289  1 0.099812
  H  H39  1  0.14372714  0.93045126  0.56817740  1 0.093017
  H  H40  1  0.86520647  0.62332629  0.53015435  1 0.105918
  H  H41  1  0.37170968  0.81465662  0.76804248  1 0.081193
  H  H42  1  0.45838015  0.75094895  0.52424376  1 0.084438
  H  H43  1  0.65870177  0.00792223  0.55184302  1 0.083883
  H  H44  1  0.63964692  0.71376489  0.24558519  1 0.113287
  H  H45  1  0.11005893  0.53764236  0.17773209  1 0.11591
  H  H46  1  0.60745188  0.55547208  0.25420765  1 0.103386
  H  H47  1  0.74697723  0.75785117  0.39525640  1 0.104253
  H  H48  1  0.62447659  0.59365889  0.03343281  1 0.088564
  H  H49  1  0.86115291  0.83699267  0.13789809  1 0.114643
  H  H50  1  0.44977260  0.38850940  0.20059503  1 0.099849
  H  H51  1  0.36206461  0.56529508  0.07104178  1 0.092983
  H  H52  1  0.64066308  0.87209631  0.02668520  1 0.105778
  H  H53  1  0.13235229  0.68451418  0.26883933  1 0.081263
  H  H54  1  0.04646872  0.74336450  0.02323148  1 0.084385
  H  H55  1  0.85355576  0.48751802  0.05598883  1 0.083951
  C  C56  1  0.29369449  0.28707576  0.39897378  1 -0.080625
  C  C57  1  0.25895592  0.20878329  0.22727620  1 -0.0821
  C  C58  1  0.30957579  0.23503779  0.15397501  1 -0.051967
  C  C59  1  0.51631701  0.19623021  0.21190857  1 0.114286
  C  C60  1  0.16765593  0.16001891  0.45179219  1 0.106641
  C  C61  1  0.61421553  0.18820527  0.44540224  1 0.106884
  C  C62  1  0.14974371  0.00992981  0.29158194  1 -0.075077
  C  C63  1  0.07461949  0.92660980  0.31811265  1 -0.050621
  C  C64  1  0.77289579  0.09508123  0.41888901  1 -0.054692
  C  C65  1  0.64783450  0.08053400  0.36562731  1 -0.080672
  C  C66  1  0.18459160  0.30422698  0.45410120  1 -0.063743
  C  C67  1  0.27760412  0.97685645  0.39558940  1 0.105159
  C  C68  1  0.20802701  0.20948242  0.90070527  1 -0.080454
  C  C69  1  0.24252921  0.28643900  0.72745497  1 -0.082098
  C  C70  1  0.19302022  0.26196337  0.65363652  1 -0.052055
  C  C71  1  0.98630196  0.30086685  0.71158737  1 0.114235
  C  C72  1  0.33652970  0.33728425  0.95132427  1 0.106737
  C  C73  1  0.88885480  0.30909796  0.94578338  1 0.1069
  C  C74  1  0.35076847  0.48600387  0.78907031  1 -0.075189
  C  C75  1  0.42835305  0.56900596  0.81543186  1 -0.050662
  C  C76  1  0.73232722  0.40350404  0.91986094  1 -0.054678
  C  C77  1  0.85663275  0.41719149  0.86619884  1 -0.080585
  C  C78  1  0.31753013  0.19303878  0.95591939  1 -0.063686
  C  C79  1  0.22975230  0.51862028  0.89521581  1 0.105102
  C  C80  1  0.72528425  0.70439699  0.60088470  1 -0.080551
  C  C81  1  0.74658785  0.78418431  0.77260924  1 -0.082158
  C  C82  1  0.69134572  0.76153472  0.84598569  1 -0.051998
  C  C83  1  0.49043027  0.80074982  0.78354317  1 0.11416
  C  C84  1  0.85043697  0.83105769  0.54707341  1 0.106686
  C  C85  1  0.40456270  0.80341612  0.54975864  1 0.10699
  C  C86  1  0.86387926  0.98289705  0.70672916  1 -0.075066
  C  C87  1  0.93974973  0.06634410  0.68064801  1 -0.050627
  C  C88  1  0.24591832  0.89703423  0.57454481  1 -0.054697
  C  C89  1  0.37058631  0.91266087  0.62793092  1 -0.08065
  C  C90  1  0.83610676  0.68715609  0.54664044  1 -0.063745
  C  C91  1  0.74296499  0.01468506  0.60031274  1 0.105162
  C  C92  1  0.77925508  0.79221091  0.09968632  1 -0.080558
  C  C93  1  0.75582461  0.71231328  0.27357674  1 -0.082111
  C  C94  1  0.81019133  0.73418567  0.34729380  1 -0.052027
  C  C95  1  0.01262952  0.69684571  0.28456468  1 0.114295
  C  C96  1  0.65599069  0.66476716  0.04667404  1 0.106628
  C  C97  1  0.10070972  0.69192724  0.05008627  1 0.106962
  C  C98  1  0.63422647  0.51680973  0.20498893  1 -0.075043
  C  C99  1  0.55724337  0.43397887  0.17798317  1 -0.050636
  C  C100  1  0.26024934  0.59930386  0.07665968  1 -0.054743
  C  C101  1  0.13648618  0.58536174  0.13057517  1 -0.080779
  C  C102  1  0.66939433  0.80862731  0.04460483  1 -0.063735
  C  C103  1  0.76450254  0.48223914  0.10237009  1 0.105172
  N  N104  1  0.28169777  0.19486961  0.39732338  1 -0.223544
  N  N105  1  0.54663867  0.13989333  0.38237204  1 -0.214511
  N  N106  1  0.27998040  0.04210639  0.34085840  1 -0.220794
  N  N107  1  0.47273426  0.22826077  0.14456521  1 -0.253951
  N  N108  1  0.39056911  0.18374816  0.26438739  1 -0.210995
  N  N109  1  0.75143912  0.16319948  0.46922779  1 -0.245509
  N  N110  1  0.10475279  0.22368659  0.48665096  1 -0.219696
  N  N111  1  0.15482813  0.90602030  0.38392767  1 -0.241474
  N  N112  1  0.22125673  0.30171334  0.89760072  1 -0.223579
  N  N113  1  0.95654923  0.35704132  0.88258108  1 -0.21448
  N  N114  1  0.22353685  0.45374885  0.83991168  1 -0.220813
  N  N115  1  0.03046029  0.26980776  0.64394985  1 -0.253902
  N  N116  1  0.11103196  0.31161809  0.76458528  1 -0.210997
  N  N117  1  0.75281226  0.33504473  0.97004528  1 -0.245496
  N  N118  1  0.39886365  0.27402632  0.98711532  1 -0.21974
  N  N119  1  0.35212245  0.58937461  0.88261609  1 -0.241441
  N  N120  1  0.73587785  0.79652297  0.60141169  1 -0.22354
  N  N121  1  0.47162128  0.85294005  0.61230551  1 -0.2145
  N  N122  1  0.73760282  0.94989733  0.65565669  1 -0.220815
  N  N123  1  0.52890468  0.77080801  0.85262498  1 -0.253862
  N  N124  1  0.61877465  0.80954254  0.73263217  1 -0.211114
  N  N125  1  0.26743689  0.82800122  0.52528141  1 -0.245539
  N  N126  1  0.91483600  0.76737932  0.51324319  1 -0.219716
  N  N127  1  0.86358634  0.08619654  0.61331816  1 -0.241519
  N  N128  1  0.76950750  0.70019801  0.10123241  1 -0.223635
  N  N129  1  0.03458502  0.64436453  0.11379398  1 -0.214657
  N  N130  1  0.76718141  0.54764262  0.15688936  1 -0.220714
  N  N131  1  0.97305642  0.72550838  0.35390074  1 -0.253952
  N  N132  1  0.88464338  0.68808539  0.23347207  1 -0.211027
  N  N133  1  0.23767201  0.66684325  0.02592906  1 -0.245453
  N  N134  1  0.59151230  0.72783426  0.01185766  1 -0.219703
  N  N135  1  0.63946409  0.41235403  0.11309369  1 -0.241493
