# generated using pymatgen
data_CuH5C13O4
_symmetry_space_group_name_H-M   'P 1'
_cell_length_a   18.87078122
_cell_length_b   18.87097144
_cell_length_c   21.14471812
_cell_angle_alpha   63.52642322
_cell_angle_beta   63.52492018
_cell_angle_gamma   59.90601871
_symmetry_Int_Tables_number   1
_chemical_formula_structural   CuH5C13O4
_chemical_formula_sum   'Cu6 H30 C78 O24'
_cell_volume   5586.35188537
_cell_formula_units_Z   6
loop_
 _symmetry_equiv_pos_site_id
 _symmetry_equiv_pos_as_xyz
  1  'x, y, z'
loop_
 _atom_site_type_symbol
 _atom_site_label
 _atom_site_symmetry_multiplicity
 _atom_site_fract_x
 _atom_site_fract_y
 _atom_site_fract_z
 _atom_site_occupancy
 _atom_site_charge
  Cu  Cu0  1  0.06107859  0.49739281  0.94392961  1 0.835917
  Cu  Cu1  1  0.49759299  0.49759630  0.94409185  1 0.825777
  Cu  Cu2  1  0.49738799  0.06112355  0.94388748  1 0.834722
  Cu  Cu3  1  0.93889900  0.50261122  0.05609300  1 0.835666
  Cu  Cu4  1  0.50260870  0.93891907  0.05607072  1 0.834299
  Cu  Cu5  1  0.50240428  0.50240713  0.05590501  1 0.810131
  H  H6  1  0.02187408  0.53189385  0.19503051  1 0.12618
  H  H7  1  0.91458522  0.50958726  0.43255945  1 0.112965
  H  H8  1  0.53180565  0.25087603  0.19514822  1 0.127173
  H  H9  1  0.50955747  0.14319006  0.43268089  1 0.111429
  H  H10  1  0.25121599  0.02186221  0.19510730  1 0.126283
  H  H11  1  0.14336812  0.91439759  0.43265287  1 0.111635
  H  H12  1  0.97813819  0.74878576  0.80489147  1 0.126304
  H  H13  1  0.08560259  0.85663276  0.56734555  1 0.111679
  H  H14  1  0.46810473  0.97812546  0.80496954  1 0.126398
  H  H15  1  0.49041216  0.08541366  0.56744173  1 0.112967
  H  H16  1  0.74912172  0.46819395  0.80485199  1 0.127091
  H  H17  1  0.85680746  0.49044273  0.56732038  1 0.111366
  H  H18  1  0.97813331  0.46810011  0.80497091  1 0.126131
  H  H19  1  0.08541682  0.49041241  0.56743766  1 0.112887
  H  H20  1  0.46818977  0.74911484  0.80486343  1 0.127305
  H  H21  1  0.49044242  0.85680805  0.56732316  1 0.111405
  H  H22  1  0.74879103  0.97813459  0.80488681  1 0.1263
  H  H23  1  0.85663131  0.08560287  0.56734680  1 0.111648
  H  H24  1  0.02186689  0.25120769  0.19511211  1 0.126253
  H  H25  1  0.91439707  0.14336738  0.43265418  1 0.111642
  H  H26  1  0.53190027  0.02186808  0.19502732  1 0.12643
  H  H27  1  0.50958767  0.91458424  0.43256228  1 0.112904
  H  H28  1  0.25088558  0.53180994  0.19513784  1 0.1269
  H  H29  1  0.14319313  0.50955694  0.43267666  1 0.111327
  H  H30  1  0.23517853  0.53069380  0.99870969  1 0.132913
  H  H31  1  0.53070077  0.23517312  0.99871559  1 0.133208
  H  H32  1  0.23519430  0.23519657  0.99883645  1 0.133192
  H  H33  1  0.76480361  0.76480668  0.00116193  1 0.133197
  H  H34  1  0.46930483  0.76482310  0.00129101  1 0.133056
  H  H35  1  0.76482771  0.46930007  0.00128308  1 0.132757
  C  C36  1  0.07570135  0.52676933  0.05568500  1 0.585839
  C  C37  1  0.12295632  0.53281101  0.09295473  1 -0.029246
  C  C38  1  0.08584746  0.53278666  0.16678766  1 -0.109596
  C  C39  1  0.95173197  0.50533961  0.46233018  1 -0.121968
  C  C40  1  0.52694823  0.34144868  0.05575747  1 0.582019
  C  C41  1  0.53280747  0.25093388  0.09302199  1 -0.026706
  C  C42  1  0.53274466  0.21424240  0.16686163  1 -0.111186
  C  C43  1  0.50532276  0.08055480  0.46239326  1 -0.118932
  C  C44  1  0.34174910  0.07569896  0.05577307  1 0.586293
  C  C45  1  0.25113139  0.12295558  0.09305940  1 -0.026977
  C  C46  1  0.21447830  0.08588876  0.16686090  1 -0.110889
  C  C47  1  0.08065056  0.95164671  0.46236885  1 -0.119954
  C  C48  1  0.92428237  0.65824908  0.94424430  1 0.586931
  C  C49  1  0.87704575  0.74887341  0.90693259  1 -0.029047
  C  C50  1  0.91411003  0.78552332  0.83313954  1 -0.109929
  C  C51  1  0.04835366  0.91934987  0.53762975  1 -0.119927
  C  C52  1  0.47322828  0.92428044  0.94433049  1 0.585524
  C  C53  1  0.46718677  0.87705314  0.90704443  1 -0.026699
  C  C54  1  0.46721311  0.91414970  0.83321213  1 -0.110011
  C  C55  1  0.49465985  0.04826679  0.53767067  1 -0.121794
  C  C56  1  0.65854848  0.47305304  0.94427190  1 0.582379
  C  C57  1  0.74906891  0.46719203  0.90696658  1 -0.027268
  C  C58  1  0.78576017  0.46725476  0.83313705  1 -0.111292
  C  C59  1  0.91944355  0.49467737  0.53760758  1 -0.118971
  C  C60  1  0.92426452  0.47322892  0.94435164  1 0.586173
  C  C61  1  0.87705717  0.46718419  0.90703429  1 -0.029085
  C  C62  1  0.91415623  0.46720839  0.83321176  1 -0.109424
  C  C63  1  0.04826936  0.49466080  0.53766683  1 -0.121774
  C  C64  1  0.47304338  0.65855468  0.94428362  1 0.582379
  C  C65  1  0.46718876  0.74906556  0.90697747  1 -0.026901
  C  C66  1  0.46725271  0.78575531  0.83314521  1 -0.110603
  C  C67  1  0.49467642  0.91944367  0.53761038  1 -0.118921
  C  C68  1  0.65824827  0.92430374  0.94421852  1 0.5859
  C  C69  1  0.74886873  0.87704430  0.90693593  1 -0.02689
  C  C70  1  0.78552639  0.91410776  0.83313572  1 -0.110954
  C  C71  1  0.91934910  0.04835364  0.53763055  1 -0.119952
  C  C72  1  0.07567824  0.34175479  0.05579816  1 0.586487
  C  C73  1  0.12296439  0.25112759  0.09306095  1 -0.029009
  C  C74  1  0.08589130  0.21447565  0.16686273  1 -0.109982
  C  C75  1  0.95164626  0.08065041  0.46236948  1 -0.119911
  C  C76  1  0.52677551  0.07571818  0.05566705  1 0.585753
  C  C77  1  0.53281803  0.12294240  0.09295545  1 -0.026663
  C  C78  1  0.53279106  0.08584379  0.16678783  1 -0.110143
  C  C79  1  0.50533937  0.95173135  0.46233320  1 -0.121636
  C  C80  1  0.34144875  0.52695751  0.05574249  1 0.58224
  C  C81  1  0.25093127  0.53281086  0.09301505  1 -0.027161
  C  C82  1  0.21424821  0.53274707  0.16685527  1 -0.111497
  C  C83  1  0.08055724  0.50532306  0.46238960  1 -0.118974
  C  C84  1  0.20563981  0.53273928  0.05566804  1 -0.088721
  C  C85  1  0.13139735  0.53203180  0.20486340  1 0.133533
  C  C86  1  0.09581328  0.52744061  0.28065532  1 -0.105556
  C  C87  1  0.06639769  0.52045274  0.34662950  1 -0.104081
  C  C88  1  0.03298379  0.51078034  0.42320843  1 0.136539
  C  C89  1  0.53274193  0.20563842  0.05567277  1 -0.089431
  C  C90  1  0.53203329  0.13138958  0.20486584  1 0.133978
  C  C91  1  0.52744229  0.09580566  0.28065823  1 -0.10594
  C  C92  1  0.52045410  0.06639438  0.34663116  1 -0.103663
  C  C93  1  0.51078066  0.03298233  0.42321055  1 0.136279
  C  C94  1  0.20571155  0.20571409  0.05575559  1 -0.089918
  C  C95  1  0.13153716  0.13153039  0.20490007  1 0.134487
  C  C96  1  0.09595070  0.09594411  0.28067658  1 -0.106409
  C  C97  1  0.06647151  0.06646842  0.34663470  1 -0.103644
  C  C98  1  0.03300816  0.03300752  0.42320242  1 0.136193
  C  C99  1  0.79428554  0.79428524  0.94424784  1 -0.090062
  C  C100  1  0.86846897  0.86846445  0.79509915  1 0.13447
  C  C101  1  0.90405518  0.90405120  0.71932217  1 -0.106212
  C  C102  1  0.93353016  0.93352947  0.65336518  1 -0.103831
  C  C103  1  0.96699179  0.96699260  0.57679683  1 0.136277
  C  C104  1  0.46726047  0.79435580  0.94433753  1 -0.089651
  C  C105  1  0.46796742  0.86860318  0.79513703  1 0.133718
  C  C106  1  0.47255690  0.90418727  0.71934516  1 -0.105855
  C  C107  1  0.47954538  0.93360176  0.65337289  1 -0.103563
  C  C108  1  0.48921840  0.96701596  0.57679327  1 0.136273
  C  C109  1  0.79435785  0.46725805  0.94433365  1 -0.08927
  C  C110  1  0.86861051  0.46796635  0.79513337  1 0.133568
  C  C111  1  0.90419378  0.47255816  0.71934077  1 -0.105394
  C  C112  1  0.93360447  0.47954667  0.65336834  1 -0.10416
  C  C113  1  0.96701728  0.48922003  0.57678855  1 0.136579
  O  O114  1  0.00102620  0.52584754  0.09373053  1 -0.523919
  O  O115  1  0.11467123  0.52051519  0.98998520  1 -0.512134
  O  O116  1  0.52598148  0.37908656  0.09379067  1 -0.5142
  O  O117  1  0.52096109  0.37451058  0.98996864  1 -0.509771
  O  O118  1  0.37952885  0.00094516  0.09380816  1 -0.523408
  O  O119  1  0.37458080  0.11468987  0.99010274  1 -0.511508
  O  O120  1  0.99904935  0.62048510  0.90618661  1 -0.524388
  O  O121  1  0.88532034  0.62543205  0.00988208  1 -0.512281
  O  O122  1  0.47415443  0.99899078  0.90626125  1 -0.52358
  O  O123  1  0.47949096  0.88533247  0.01002071  1 -0.511258
  O  O124  1  0.62091280  0.47401540  0.90620101  1 -0.519967
  O  O125  1  0.62549148  0.47903829  0.01001904  1 -0.504519
  O  O126  1  0.99898385  0.47416656  0.90626153  1 -0.524638
  O  O127  1  0.88534263  0.47946388  0.01000880  1 -0.51207
  O  O128  1  0.47400149  0.62091738  0.90621487  1 -0.519931
  O  O129  1  0.47902891  0.62549559  0.01003444  1 -0.50445
  O  O130  1  0.62048119  0.99904867  0.90616999  1 -0.52324
  O  O131  1  0.62540364  0.88532924  0.00989301  1 -0.511498
  O  O132  1  0.00096908  0.37950843  0.09382219  1 -0.523737
  O  O133  1  0.11467462  0.37458198  0.99010999  1 -0.512413
  O  O134  1  0.52583047  0.00100984  0.09373177  1 -0.523535
  O  O135  1  0.52052933  0.11467119  0.98997360  1 -0.511288
  O  O136  1  0.37908064  0.52599712  0.09377677  1 -0.514266
  O  O137  1  0.37450669  0.52097040  0.98995726  1 -0.510014
