# generated using pymatgen
data_Ni3H20(C8O5)2
_symmetry_space_group_name_H-M   'P 1'
_cell_length_a   4.43103815
_cell_length_b   11.89566997
_cell_length_c   11.20231299
_cell_angle_alpha   117.37019353
_cell_angle_beta   97.97989230
_cell_angle_gamma   92.71269792
_symmetry_Int_Tables_number   1
_chemical_formula_structural   Ni3H20(C8O5)2
_chemical_formula_sum   'Ni3 H20 C16 O10'
_cell_volume   515.13298939
_cell_formula_units_Z   1
loop_
 _symmetry_equiv_pos_site_id
 _symmetry_equiv_pos_as_xyz
  1  'x, y, z'
loop_
 _atom_site_type_symbol
 _atom_site_label
 _atom_site_symmetry_multiplicity
 _atom_site_fract_x
 _atom_site_fract_y
 _atom_site_fract_z
 _atom_site_occupancy
 _atom_site_charge
  Ni  Ni0  1  0.48025187  0.88225149  0.99405664  1 0.808263
  Ni  Ni1  1  0.51940911  0.11771289  0.00588912  1 0.808507
  Ni  Ni2  1  0.99984721  0.00007553  0.00019730  1 0.726774
  H  H3  1  0.39018739  0.52504893  0.63291744  1 0.061595
  H  H4  1  0.91756515  0.46664146  0.69851681  1 0.099962
  H  H5  1  0.70225575  0.55614484  0.63633043  1 0.070142
  H  H6  1  0.01322826  0.68580726  0.53528674  1 0.097872
  H  H7  1  0.40613077  0.66646621  0.53613987  1 0.101758
  H  H8  1  0.59733053  0.89200247  0.38046553  1 0.061041
  H  H9  1  0.05285816  0.77460830  0.33520145  1 0.099332
  H  H10  1  0.28748302  0.91274391  0.36491490  1 0.072319
  H  H11  1  0.01479217  0.12389314  0.42114478  1 0.103944
  H  H12  1  0.62155467  0.11262426  0.42966750  1 0.103819
  H  H13  1  0.60979124  0.47491557  0.36704677  1 0.061549
  H  H14  1  0.08240049  0.53334966  0.30146830  1 0.09984
  H  H15  1  0.29774647  0.44383913  0.36365027  1 0.069868
  H  H16  1  0.98675109  0.31418039  0.46470295  1 0.097881
  H  H17  1  0.59383295  0.33352705  0.46384713  1 0.101836
  H  H18  1  0.40266727  0.10799476  0.61950651  1 0.061222
  H  H19  1  0.94717113  0.22539261  0.66478258  1 0.099247
  H  H20  1  0.71252608  0.08726540  0.63508859  1 0.072341
  H  H21  1  0.98524425  0.87611028  0.57885580  1 0.103972
  H  H22  1  0.37844844  0.88738142  0.57032055  1 0.103755
  C  C23  1  0.18452540  0.57931397  0.63616307  1 -0.081811
  C  C24  1  0.90055022  0.49675585  0.61870542  1 -0.149343
  C  C25  1  0.17949922  0.61839297  0.52307141  1 -0.177514
  C  C26  1  0.24709842  0.69761770  0.77421575  1 0.577252
  C  C27  1  0.81003258  0.93511863  0.36267949  1 -0.076958
  C  C28  1  0.08284051  0.87936142  0.39631385  1 -0.148809
  C  C29  1  0.83848471  0.08054172  0.45146003  1 -0.18041
  C  C30  1  0.74244027  0.90636150  0.21412744  1 0.584094
  C  C31  1  0.81546581  0.42065228  0.36379225  1 -0.081828
  C  C32  1  0.09939025  0.50323699  0.38127858  1 -0.148922
  C  C33  1  0.82048047  0.38160127  0.47692740  1 -0.177738
  C  C34  1  0.75289050  0.30236437  0.22576764  1 0.577652
  C  C35  1  0.19002357  0.06489568  0.63732798  1 -0.077074
  C  C36  1  0.91721161  0.12064091  0.60367844  1 -0.148693
  C  C37  1  0.16153030  0.91946199  0.54852675  1 -0.180407
  C  C38  1  0.25763156  0.09366984  0.78586008  1 0.583598
  O  O39  1  0.49595884  0.71231447  0.85830577  1 -0.440653
  O  O40  1  0.06197752  0.78031077  0.80226524  1 -0.469894
  O  O41  1  0.48588015  0.83974596  0.14029613  1 -0.439416
  O  O42  1  0.93762415  0.95652342  0.17326088  1 -0.46536
  O  O43  1  0.50405424  0.28765502  0.14169286  1 -0.440738
  O  O44  1  0.93812057  0.21967018  0.19773688  1 -0.470181
  O  O45  1  0.51418736  0.16027935  0.85970846  1 -0.439245
  O  O46  1  0.06255425  0.04352952  0.82678103  1 -0.465163
  O  O47  1  0.61537299  0.95742839  0.89904684  1 -0.574531
  O  O48  1  0.38470101  0.04257889  0.10101235  1 -0.574748
