# generated using pymatgen
data_Co3H8C14(NO)6
_symmetry_space_group_name_H-M   'P 1'
_cell_length_a   10.87757696
_cell_length_b   10.91477936
_cell_length_c   10.74544129
_cell_angle_alpha   86.46110078
_cell_angle_beta   87.51457485
_cell_angle_gamma   79.68412746
_symmetry_Int_Tables_number   1
_chemical_formula_structural   Co3H8C14(NO)6
_chemical_formula_sum   'Co6 H16 C28 N12 O12'
_cell_volume   1252.07306608
_cell_formula_units_Z   2
loop_
 _symmetry_equiv_pos_site_id
 _symmetry_equiv_pos_as_xyz
  1  'x, y, z'
loop_
 _atom_site_type_symbol
 _atom_site_label
 _atom_site_symmetry_multiplicity
 _atom_site_fract_x
 _atom_site_fract_y
 _atom_site_fract_z
 _atom_site_occupancy
 _atom_site_charge
  Co  Co0  1  0.07779447  0.91843406  0.25097138  1 0.653896
  Co  Co1  1  0.97699618  0.84788217  0.00847641  1 0.804916
  Co  Co2  1  0.84658288  0.98195851  0.50329888  1 0.815425
  Co  Co3  1  0.92686815  0.07707501  0.74877127  1 0.742855
  Co  Co4  1  0.02709578  0.15152590  0.99344689  1 0.811993
  Co  Co5  1  0.15437545  0.01402209  0.49458911  1 0.807797
  H  H6  1  0.64630626  0.84589065  0.98799558  1 0.123198
  H  H7  1  0.43217296  0.85235032  0.08655718  1 0.108765
  H  H8  1  0.55475911  0.94658400  0.43937129  1 0.129012
  H  H9  1  0.15046818  0.34301587  0.51637389  1 0.123938
  H  H10  1  0.13128701  0.56123525  0.42170391  1 0.109418
  H  H11  1  0.04917696  0.44413765  0.06268234  1 0.129803
  H  H12  1  0.18533594  0.91518746  0.04284017  1 0.386778
  H  H13  1  0.07282054  0.81314287  0.46077493  1 0.386967
  H  H14  1  0.35088203  0.15484877  0.00994081  1 0.121694
  H  H15  1  0.56661285  0.14547564  0.91493754  1 0.108327
  H  H16  1  0.44663764  0.05266409  0.55971149  1 0.128619
  H  H17  1  0.84848692  0.65968783  0.48579669  1 0.122673
  H  H18  1  0.86953145  0.44040708  0.57732243  1 0.108226
  H  H19  1  0.95167706  0.55478505  0.93827638  1 0.128728
  H  H20  1  0.81740103  0.09031254  0.93950356  1 0.388101
  H  H21  1  0.92073612  0.18539853  0.55540603  1 0.388869
  C  C22  1  0.69353424  0.92245314  0.28750341  1 0.132006
  C  C23  1  0.71955876  0.89326514  0.16110084  1 0.133399
  C  C24  1  0.62657338  0.86697869  0.08538247  1 -0.156135
  C  C25  1  0.50869795  0.87098547  0.14021808  1 -0.09982
  C  C26  1  0.48195950  0.90010542  0.26700250  1 -0.037946
  C  C27  1  0.57424355  0.92509422  0.34238624  1 -0.15026
  C  C28  1  0.35015786  0.90858196  0.31699734  1 0.585474
  C  C29  1  0.08007527  0.30132046  0.21292552  1 0.131898
  C  C30  1  0.10925120  0.27283802  0.34008059  1 0.134048
  C  C31  1  0.12918280  0.36507605  0.41855720  1 -0.156418
  C  C32  1  0.11829693  0.48508676  0.36583683  1 -0.099057
  C  C33  1  0.08891014  0.51442416  0.23841631  1 -0.038936
  C  C34  1  0.07079065  0.42283541  0.16018053  1 -0.150483
  C  C35  1  0.07369531  0.64797726  0.19058539  1 0.586689
  C  C36  1  0.30556566  0.07902277  0.70978658  1 0.131097
  C  C37  1  0.27905161  0.10901901  0.83573352  1 0.130799
  C  C38  1  0.37175198  0.13410614  0.91255699  1 -0.157686
  C  C39  1  0.49062837  0.12819967  0.85950281  1 -0.099009
  C  C40  1  0.51848696  0.09872299  0.73287008  1 -0.040054
  C  C41  1  0.42608475  0.07489815  0.65643460  1 -0.150287
  C  C42  1  0.65130107  0.08828636  0.68353199  1 0.587028
  C  C43  1  0.91929308  0.69944528  0.78947336  1 0.131367
  C  C44  1  0.88891791  0.72840391  0.66286733  1 0.129592
  C  C45  1  0.86931453  0.63660482  0.58363932  1 -0.158646
  C  C46  1  0.88137683  0.51588022  0.63485048  1 -0.098561
  C  C47  1  0.91102172  0.48549297  0.76215637  1 -0.038733
  C  C48  1  0.92909619  0.57701255  0.84105198  1 -0.151066
  C  C49  1  0.92681366  0.35123019  0.80986642  1 0.588256
  N  N50  1  0.84289292  0.89845933  0.13718951  1 -0.234239
  N  N51  1  0.88890972  0.92981582  0.24116542  1 0.008793
  N  N52  1  0.80283994  0.94460771  0.33420060  1 -0.250504
  N  N53  1  0.06418360  0.19188229  0.16367533  1 -0.252099
  N  N54  1  0.08235365  0.10359398  0.25625878  1 0.010875
  N  N55  1  0.11014555  0.14819422  0.36196694  1 -0.232714
  N  N56  1  0.15582768  0.10454150  0.85966524  1 -0.233225
  N  N57  1  0.10994705  0.07186144  0.75613215  1 0.011503
  N  N58  1  0.19608094  0.05676616  0.66286191  1 -0.249328
  N  N59  1  0.93710837  0.80872178  0.83838494  1 -0.250705
  N  N60  1  0.91959673  0.89683702  0.74529134  1 0.013508
  N  N61  1  0.88873621  0.85269108  0.64050326  1 -0.230809
  O  O62  1  0.09688007  0.94652891  0.05939165  1 -0.78091
  O  O63  1  0.04748417  0.90248796  0.44277281  1 -0.782294
  O  O64  1  0.32566600  0.94476746  0.42845629  1 -0.553694
  O  O65  1  0.27162570  0.88123576  0.24438536  1 -0.504227
  O  O66  1  0.04127151  0.67436503  0.07705202  1 -0.552153
  O  O67  1  0.09255230  0.72591408  0.26702339  1 -0.502575
  O  O68  1  0.90666378  0.05759609  0.92724164  1 -0.768812
  O  O69  1  0.94783468  0.09543802  0.57036187  1 -0.770615
  O  O70  1  0.67576791  0.05563909  0.57141981  1 -0.554371
  O  O71  1  0.73083204  0.11120093  0.75860954  1 -0.517753
  O  O72  1  0.95824602  0.32470023  0.92319848  1 -0.553255
  O  O73  1  0.90891665  0.27278559  0.73254848  1 -0.518951
