# generated using pymatgen
data_CuC8(N2O)2
_symmetry_space_group_name_H-M   'P 1'
_cell_length_a   16.13996832
_cell_length_b   16.13530613
_cell_length_c   16.13599732
_cell_angle_alpha   89.99843605
_cell_angle_beta   89.99389056
_cell_angle_gamma   89.98813417
_symmetry_Int_Tables_number   1
_chemical_formula_structural   CuC8(N2O)2
_chemical_formula_sum   'Cu12 C96 N48 O24'
_cell_volume   4202.19003736
_cell_formula_units_Z   12
loop_
 _symmetry_equiv_pos_site_id
 _symmetry_equiv_pos_as_xyz
  1  'x, y, z'
loop_
 _atom_site_type_symbol
 _atom_site_label
 _atom_site_symmetry_multiplicity
 _atom_site_fract_x
 _atom_site_fract_y
 _atom_site_fract_z
 _atom_site_occupancy
 _atom_site_charge
  Cu  Cu0  1  0.49998178  0.74980984  0.25019701  1 0.764773
  Cu  Cu1  1  0.00002112  0.74999257  0.25000856  1 0.76554
  Cu  Cu2  1  0.25007584  0.50002019  0.74990086  1 0.764859
  Cu  Cu3  1  0.24991119  -0.00002230  0.74989607  1 0.76487
  Cu  Cu4  1  0.74991048  0.25009656  0.49999494  1 0.764891
  Cu  Cu5  1  0.75009794  0.25009614  0.00000331  1 0.764836
  Cu  Cu6  1  0.50001135  0.24990879  0.75006657  1 0.765157
  Cu  Cu7  1  -0.00001187  0.24994683  0.75006144  1 0.76565
  Cu  Cu8  1  0.75004549  0.50010051  0.24993820  1 0.765551
  Cu  Cu9  1  0.74999447  -0.00009191  0.24993044  1 0.765405
  Cu  Cu10  1  0.24997105  0.75006970  0.49989252  1 0.765755
  Cu  Cu11  1  0.24999095  0.75007435  0.00009824  1 0.765441
  C  C12  1  0.37589503  0.88464717  0.19646777  1 0.319255
  C  C13  1  0.12408846  0.61535548  0.19649668  1 0.319149
  C  C14  1  0.12424189  0.88460833  0.30373535  1 0.319098
  C  C15  1  0.37571368  0.61528457  0.30369704  1 0.318084
  C  C16  1  0.19645268  0.37595566  0.88465029  1 0.319136
  C  C17  1  0.19653158  0.12402123  0.61532118  1 0.318748
  C  C18  1  0.30353570  0.12401259  0.88460972  1 0.319019
  C  C19  1  0.30348302  0.37594523  0.61529651  1 0.319179
  C  C20  1  0.88465330  0.19644532  0.37586811  1 0.319343
  C  C21  1  0.61538340  0.19646533  0.12408342  1 0.31949
  C  C22  1  0.88471742  0.30373968  0.12432612  1 0.318586
  C  C23  1  0.61531433  0.30378525  0.37565683  1 0.318426
  C  C24  1  0.38460159  0.87590406  0.80354972  1 0.319437
  C  C25  1  0.11533329  0.62414823  0.80355708  1 0.319537
  C  C26  1  0.38466061  0.62432928  0.69623101  1 0.318622
  C  C27  1  0.11533018  0.87569895  0.69625782  1 0.318527
  C  C28  1  0.87577026  0.69625334  0.11539478  1 0.319114
  C  C29  1  0.62428308  0.69632184  0.38473636  1 0.318187
  C  C30  1  0.62406472  0.80352976  0.11537969  1 0.319389
  C  C31  1  0.87593812  0.80347621  0.38463938  1 0.318975
  C  C32  1  0.69648941  0.38470118  0.62406505  1 0.318939
  C  C33  1  0.69647839  0.11533580  0.87595990  1 0.319239
  C  C34  1  0.80348885  0.38470476  0.87596355  1 0.319245
  C  C35  1  0.80355153  0.11532821  0.62406240  1 0.319114
  C  C36  1  0.62404715  0.11532465  0.80350735  1 0.319269
  C  C37  1  0.87589818  0.38463653  0.80354808  1 0.319496
  C  C38  1  0.87596577  0.11534493  0.69647661  1 0.31917
  C  C39  1  0.62407304  0.38462192  0.69645646  1 0.319264
  C  C40  1  0.80358028  0.62408862  0.11538137  1 0.318074
  C  C41  1  0.80357712  0.87582606  0.38463856  1 0.319256
  C  C42  1  0.69646563  0.87590782  0.11534332  1 0.318986
  C  C43  1  0.69648228  0.62413059  0.38464798  1 0.318655
  C  C44  1  0.11535175  0.80351951  0.62403070  1 0.318512
  C  C45  1  0.38461276  0.80353895  0.87595458  1 0.319217
  C  C46  1  0.11534465  0.69648087  0.87596436  1 0.318998
  C  C47  1  0.38462502  0.69647605  0.62400654  1 0.318077
  C  C48  1  0.61534465  0.12405168  0.19647270  1 0.319279
  C  C49  1  0.88469254  0.37596553  0.19651912  1 0.318462
  C  C50  1  0.61535785  0.37600450  0.30349444  1 0.318034
  C  C51  1  0.88466777  0.12403687  0.30351309  1 0.319155
  C  C52  1  0.12405182  0.30355215  0.88463291  1 0.318832
  C  C53  1  0.37589891  0.30356102  0.61537512  1 0.31935
  C  C54  1  0.37595037  0.19645210  0.88461478  1 0.319255
  C  C55  1  0.12412635  0.19643429  0.61538959  1 0.319385
  C  C56  1  0.30353128  0.61537387  0.37589804  1 0.318281
  C  C57  1  0.30350234  0.88466478  0.12407780  1 0.318845
  C  C58  1  0.19643332  0.61537419  0.12414690  1 0.319022
  C  C59  1  0.19642735  0.88463360  0.37592079  1 0.318109
  C  C60  1  0.37468822  0.76563083  0.12531424  1 0.601415
  C  C61  1  0.32164663  0.94626905  0.17831097  1 -0.271732
  C  C62  1  0.12529844  0.73438929  0.12529558  1 0.601268
  C  C63  1  0.17829185  0.55367009  0.17828572  1 -0.271783
  C  C64  1  0.12524920  0.76563217  0.37474888  1 0.601726
  C  C65  1  0.17830887  0.94638169  0.32171440  1 -0.270685
  C  C66  1  0.37471464  0.73427528  0.37468452  1 0.601258
  C  C67  1  0.32166356  0.55354805  0.32181193  1 -0.270089
  C  C68  1  0.12526041  0.37470365  0.76561511  1 0.601555
  C  C69  1  0.17820304  0.32174729  0.94627234  1 -0.271779
  C  C70  1  0.12531531  0.12526607  0.73436878  1 0.601728
  C  C71  1  0.17820283  0.17819845  0.55368338  1 -0.271654
  C  C72  1  0.37472141  0.12526808  0.76556815  1 0.601142
  C  C73  1  0.32177453  0.17822099  0.94622432  1 -0.271779
  C  C74  1  0.37471310  0.37469714  0.73433190  1 0.601836
  C  C75  1  0.32183616  0.32177173  0.55366559  1 -0.271975
  C  C76  1  0.76566908  0.12531206  0.37464149  1 0.601705
  C  C77  1  0.94628580  0.17824538  0.32167353  1 -0.272139
  C  C78  1  0.73436976  0.12534130  0.12532761  1 0.60153
  C  C79  1  0.55375306  0.17828582  0.17828252  1 -0.272056
  C  C80  1  0.76574736  0.37467491  0.12531017  1 0.601601
  C  C81  1  0.94643458  0.32179565  0.17838597  1 -0.270428
  C  C82  1  0.73427371  0.37471839  0.37467747  1 0.601052
  C  C83  1  0.55359151  0.32186235  0.32157103  1 -0.270247
  C  C84  1  0.26559456  0.87468240  0.87466969  1 0.60119
  C  C85  1  0.44622514  0.82167513  0.82173845  1 -0.27193
  C  C86  1  0.23433235  0.62535676  0.87469383  1 0.601666
  C  C87  1  0.05371060  0.67835910  0.82176656  1 -0.272219
  C  C88  1  0.26571391  0.62532794  0.62527458  1 0.600846
  C  C89  1  0.44638804  0.67840005  0.67817116  1 -0.27037
  C  C90  1  0.23428664  0.87470325  0.62530033  1 0.601071
  C  C91  1  0.05360670  0.82163851  0.67821365  1 -0.27056
  C  C92  1  0.87475711  0.62525287  0.23438334  1 0.601888
  C  C93  1  0.82169005  0.67829106  0.05363459  1 -0.270608
  C  C94  1  0.62529300  0.62531997  0.26574585  1 0.601563
  C  C95  1  0.67834812  0.67821421  0.44646050  1 -0.270379
  C  C96  1  0.62530598  0.87468920  0.23438229  1 0.601297
  C  C97  1  0.67828899  0.82165733  0.05375772  1 -0.271974
  C  C98  1  0.87470206  0.87470013  0.26563607  1 0.601472
  C  C99  1  0.82175225  0.82166094  0.44631970  1 -0.271704
  C  C100  1  0.62528459  0.26565489  0.62529213  1 0.601894
  C  C101  1  0.67812050  0.44633700  0.67824514  1 -0.271828
  C  C102  1  0.62531053  0.23438020  0.87470648  1 0.601203
  C  C103  1  0.67821541  0.05371329  0.82176664  1 -0.272092
  C  C104  1  0.87467333  0.26564590  0.87473199  1 0.601565
  C  C105  1  0.82183657  0.44634925  0.82179735  1 -0.271966
  C  C106  1  0.87471971  0.23436986  0.62529962  1 0.601484
  C  C107  1  0.82183025  0.05369797  0.67827353  1 -0.272135
  N  N108  1  0.41142745  0.81334001  0.19067782  1 -0.440122
  N  N109  1  0.08854988  0.68666194  0.19065651  1 -0.44042
  N  N110  1  0.08855952  0.81339258  0.30946450  1 -0.440283
  N  N111  1  0.41140668  0.68648688  0.30942207  1 -0.439807
  N  N112  1  0.19058212  0.41148205  0.81335291  1 -0.440309
  N  N113  1  0.19062422  0.08848227  0.68660234  1 -0.44024
  N  N114  1  0.30941452  0.08849297  0.81332081  1 -0.440051
  N  N115  1  0.30938575  0.41147592  0.68657397  1 -0.440505
  N  N116  1  0.81335984  0.19068646  0.41138628  1 -0.440373
  N  N117  1  0.68667534  0.19070295  0.08857923  1 -0.440413
  N  N118  1  0.81351856  0.30940185  0.08863023  1 -0.439672
  N  N119  1  0.68650035  0.30943702  0.41135219  1 -0.439611
  N  N120  1  0.31331269  0.91141742  0.80930908  1 -0.44031
  N  N121  1  0.18662541  0.58862417  0.80931351  1 -0.440416
  N  N122  1  0.31347989  0.58865205  0.69056726  1 -0.43982
  N  N123  1  0.18651997  0.91138246  0.69058110  1 -0.43962
  N  N124  1  0.91145502  0.69052543  0.18661387  1 -0.44059
  N  N125  1  0.58858591  0.69058560  0.31353651  1 -0.439711
  N  N126  1  0.58854941  0.80933127  0.18668520  1 -0.439947
  N  N127  1  0.91146911  0.80933288  0.31334196  1 -0.440493
  N  N128  1  0.69059830  0.31341729  0.58852208  1 -0.440487
  N  N129  1  0.69061654  0.18663398  0.91148208  1 -0.439948
  N  N130  1  0.80937404  0.31341396  0.91150801  1 -0.440298
  N  N131  1  0.80940429  0.18662826  0.58852540  1 -0.440261
  N  N132  1  0.58856215  0.18661326  0.80938978  1 -0.440207
  N  N133  1  0.91145641  0.31336469  0.80943095  1 -0.440481
  N  N134  1  0.91148242  0.18662710  0.69062000  1 -0.440326
  N  N135  1  0.58850078  0.31337952  0.69059913  1 -0.440245
  N  N136  1  0.80937032  0.58849880  0.18669812  1 -0.440443
  N  N137  1  0.80939528  0.91144018  0.31337298  1 -0.440361
  N  N138  1  0.69064139  0.91141385  0.18663847  1 -0.440286
  N  N139  1  0.69067539  0.58850465  0.31335753  1 -0.440569
  N  N140  1  0.18663722  0.80932471  0.58846945  1 -0.440501
  N  N141  1  0.31333470  0.80937020  0.91146414  1 -0.440432
  N  N142  1  0.18660158  0.69067359  0.91149333  1 -0.440219
  N  N143  1  0.31333913  0.69070842  0.58842411  1 -0.440254
  N  N144  1  0.68662798  0.08854397  0.19064013  1 -0.440489
  N  N145  1  0.81339367  0.41151925  0.19069465  1 -0.440796
  N  N146  1  0.68665008  0.41157626  0.30928718  1 -0.440347
  N  N147  1  0.81341030  0.08851339  0.30932227  1 -0.440448
  N  N148  1  0.08851897  0.30937988  0.81335799  1 -0.440312
  N  N149  1  0.41149363  0.30939037  0.68661004  1 -0.440247
  N  N150  1  0.41145103  0.19059018  0.81333765  1 -0.440391
  N  N151  1  0.08854376  0.19057205  0.68664517  1 -0.44039
  N  N152  1  0.30934298  0.68666710  0.41150663  1 -0.440378
  N  N153  1  0.30935721  0.81336993  0.08857602  1 -0.440339
  N  N154  1  0.19059830  0.68664796  0.08855211  1 -0.440196
  N  N155  1  0.19062768  0.81331803  0.41150911  1 -0.440548
  O  O156  1  0.39486063  0.69589566  0.10502337  1 -0.469833
  O  O157  1  0.10515598  0.80414011  0.10503320  1 -0.469867
  O  O158  1  0.10490482  0.69589630  0.39482602  1 -0.470269
  O  O159  1  0.39505376  0.80403058  0.39467761  1 -0.470058
  O  O160  1  0.10506967  0.39483931  0.69584291  1 -0.469888
  O  O161  1  0.10518261  0.10514334  0.80415725  1 -0.470031
  O  O162  1  0.39488871  0.10512017  0.69579353  1 -0.46958
  O  O163  1  0.39486219  0.39481468  0.80411863  1 -0.470149
  O  O164  1  0.69594969  0.10506733  0.39482725  1 -0.470049
  O  O165  1  0.80409599  0.10511874  0.10512355  1 -0.469904
  O  O166  1  0.69601367  0.39467926  0.10491854  1 -0.47016
  O  O167  1  0.80398965  0.39474463  0.39505866  1 -0.469996
  O  O168  1  0.19587027  0.89488495  0.89490866  1 -0.469825
  O  O169  1  0.30405729  0.60517027  0.89495288  1 -0.470079
  O  O170  1  0.19599713  0.60494897  0.60524373  1 -0.469875
  O  O171  1  0.30401175  0.89508938  0.60528579  1 -0.469948
  O  O172  1  0.89509398  0.60516173  0.30411981  1 -0.47037
  O  O173  1  0.60496390  0.60529894  0.19599927  1 -0.470283
  O  O174  1  0.60513395  0.89497697  0.30410915  1 -0.469812
  O  O175  1  0.89484428  0.89497214  0.19589381  1 -0.470032
  O  O176  1  0.60516119  0.19586689  0.60516565  1 -0.470036
  O  O177  1  0.60516502  0.30416707  0.89485708  1 -0.469671
  O  O178  1  0.89477386  0.19584649  0.89486594  1 -0.469917
  O  O179  1  0.89488487  0.30414834  0.60516391  1 -0.469848
