# generated using pymatgen
data_NiH24(C4N3)4
_symmetry_space_group_name_H-M   'P 1'
_cell_length_a   10.64629358
_cell_length_b   14.99708644
_cell_length_c   21.41154421
_cell_angle_alpha   90.00025709
_cell_angle_beta   91.93834399
_cell_angle_gamma   90.00049255
_symmetry_Int_Tables_number   1
_chemical_formula_structural   NiH24(C4N3)4
_chemical_formula_sum   'Ni4 H96 C64 N48'
_cell_volume   3416.68349676
_cell_formula_units_Z   4
loop_
 _symmetry_equiv_pos_site_id
 _symmetry_equiv_pos_as_xyz
  1  'x, y, z'
loop_
 _atom_site_type_symbol
 _atom_site_label
 _atom_site_symmetry_multiplicity
 _atom_site_fract_x
 _atom_site_fract_y
 _atom_site_fract_z
 _atom_site_occupancy
 _atom_site_charge
  Ni  Ni0  1  0.90739006  0.23674144  0.69955857  1 0.145454
  Ni  Ni1  1  0.59261079  0.73674093  0.80043949  1 0.144902
  Ni  Ni2  1  0.09261059  0.76325816  0.30044109  1 0.144863
  Ni  Ni3  1  0.40738926  0.26325658  0.19955970  1 0.14529
  H  H4  1  0.90604995  0.21167786  0.54623202  1 0.068035
  H  H5  1  0.71997795  0.12117282  0.78389431  1 0.088304
  H  H6  1  0.40235388  0.88758476  0.84386702  1 0.0861
  H  H7  1  0.41640350  0.07210946  0.87764233  1 0.039369
  H  H8  1  0.54544631  0.05165261  0.83078613  1 0.07295
  H  H9  1  0.45553992  0.23574226  0.87462965  1 0.085498
  H  H10  1  0.58094140  0.17265840  0.90961658  1 0.025056
  H  H11  1  0.89643801  0.01740368  0.67950104  1 0.099099
  H  H12  1  0.64001897  0.21985373  0.62693867  1 0.074503
  H  H13  1  0.46700454  0.11814616  0.57582282  1 0.084132
  H  H14  1  0.46498897  0.00948533  0.60774440  1 0.089657
  H  H15  1  0.17897259  0.12318239  0.45932645  1 0.092298
  H  H16  1  0.01557566  0.14346508  0.45273985  1 0.086504
  H  H17  1  0.51796393  0.82443852  0.66331738  1 0.08762
  H  H18  1  0.06987372  0.98270888  0.43947768  1 0.088076
  H  H19  1  0.13989656  0.98006268  0.51544215  1 0.090152
  H  H20  1  0.75154211  0.39949671  0.77061462  1 0.084973
  H  H21  1  0.62522582  0.96372039  0.52700491  1 0.090972
  H  H22  1  0.60476514  0.06912025  0.49091326  1 0.075345
  H  H23  1  0.44135391  0.12727040  0.73988392  1 0.092447
  H  H24  1  0.32346960  0.17044017  0.78749534  1 0.093344
  H  H25  1  0.20612288  0.19122785  0.67780751  1 0.088062
  H  H26  1  0.24333877  0.01745043  0.80751059  1 0.054808
  H  H27  1  0.23809367  0.04440649  0.72659013  1 0.09403
  H  H28  1  0.59394601  0.71167693  0.95376691  1 0.067033
  H  H29  1  0.78002238  0.62117300  0.71610543  1 0.088635
  H  H30  1  0.09764752  0.38758673  0.65612742  1 0.085035
  H  H31  1  0.08360127  0.57210533  0.62235176  1 0.037985
  H  H32  1  0.95455159  0.55165121  0.66921299  1 0.073768
  H  H33  1  0.04445969  0.73574197  0.62536967  1 0.08577
  H  H34  1  0.91905769  0.67265694  0.59038204  1 0.025981
  H  H35  1  0.60356219  0.51740393  0.82049865  1 0.099058
  H  H36  1  0.85997958  0.71985196  0.87305897  1 0.074598
  H  H37  1  0.03299579  0.61814361  0.92417589  1 0.084565
  H  H38  1  0.03501275  0.50948468  0.89225576  1 0.089657
  H  H39  1  0.32103257  0.62317852  0.04067301  1 0.092492
  H  H40  1  0.48442471  0.64346393  0.04726082  1 0.086448
  H  H41  1  0.98203615  0.32443965  0.83668067  1 0.085966
  H  H42  1  0.43012580  0.48270713  0.06052235  1 0.088081
  H  H43  1  0.36010307  0.48006369  0.98455761  1 0.090129
  H  H44  1  0.74845723  0.89949701  0.72938511  1 0.084872
  H  H45  1  0.87477415  0.46372275  0.97299513  1 0.090846
  H  H46  1  0.89523337  0.56911795  0.00908678  1 0.075252
  H  H47  1  0.05864523  0.62727082  0.76011726  1 0.092495
  H  H48  1  0.17653228  0.67044006  0.71250435  1 0.093514
  H  H49  1  0.29387863  0.69122684  0.82219176  1 0.088098
  H  H50  1  0.25665996  0.51745029  0.69248791  1 0.053565
  H  H51  1  0.26190658  0.54440583  0.77341022  1 0.093964
  H  H52  1  0.09395104  0.78832103  0.45376791  1 0.069013
  H  H53  1  0.28002114  0.87882888  0.21610531  1 0.088607
  H  H54  1  0.59764469  0.11241437  0.15613168  1 0.085495
  H  H55  1  0.58359410  0.92789090  0.12235896  1 0.038001
  H  H56  1  0.45455255  0.94834772  0.16921312  1 0.07372
  H  H57  1  0.54445871  0.76425737  0.12537050  1 0.085251
  H  H58  1  0.41905807  0.82734243  0.09038391  1 0.026799
  H  H59  1  0.10356253  0.98259673  0.32049892  1 0.09902
  H  H60  1  0.35998091  0.78014379  0.37306148  1 0.076105
  H  H61  1  0.53299501  0.88185372  0.42417665  1 0.084887
  H  H62  1  0.53501103  0.99051427  0.39225581  1 0.089821
  H  H63  1  0.82102834  0.87681959  0.54067298  1 0.092913
  H  H64  1  0.98442613  0.85653515  0.54726029  1 0.086604
  H  H65  1  0.48203542  0.17556300  0.33668335  1 0.086153
  H  H66  1  0.93012634  0.01729165  0.56052244  1 0.088177
  H  H67  1  0.86010345  0.01993666  0.48455813  1 0.09026
  H  H68  1  0.24845876  0.60050274  0.22938642  1 0.085037
  H  H69  1  0.37477471  0.03627985  0.47299512  1 0.090987
  H  H70  1  0.39523377  0.93087915  0.50908700  1 0.075973
  H  H71  1  0.55864581  0.87272940  0.26011584  1 0.092225
  H  H72  1  0.67652984  0.82956046  0.21250526  1 0.093179
  H  H73  1  0.79387785  0.80877242  0.32219243  1 0.088092
  H  H74  1  0.75666078  0.98254975  0.19249034  1 0.053066
  H  H75  1  0.76190611  0.95559379  0.27340907  1 0.093802
  H  H76  1  0.40605121  0.28832330  0.04623314  1 0.068309
  H  H77  1  0.21998000  0.37883421  0.28389574  1 0.088775
  H  H78  1  0.90235611  0.61241336  0.34386852  1 0.08545
  H  H79  1  0.91640166  0.42789193  0.37764640  1 0.037941
  H  H80  1  0.04545121  0.44834898  0.33078787  1 0.073964
  H  H81  1  0.95554050  0.26425732  0.37463052  1 0.085318
  H  H82  1  0.08095996  0.32734887  0.40962744  1 0.024158
  H  H83  1  0.39643773  0.48259602  0.17950227  1 0.099134
  H  H84  1  0.14001958  0.28014655  0.12694026  1 0.074545
  H  H85  1  0.96700432  0.38185592  0.07582374  1 0.084127
  H  H86  1  0.96498715  0.49051445  0.10774431  1 0.089675
  H  H87  1  0.67896758  0.37682109  0.95932730  1 0.092213
  H  H88  1  0.51557503  0.35653621  0.95273938  1 0.086401
  H  H89  1  0.01796421  0.67556005  0.16331969  1 0.08651
  H  H90  1  0.56987393  0.51729242  0.93947766  1 0.088157
  H  H91  1  0.63989694  0.51993628  0.01544241  1 0.090157
  H  H92  1  0.25154255  0.10050208  0.27061448  1 0.084981
  H  H93  1  0.12522615  0.53627758  0.02700492  1 0.090883
  H  H94  1  0.10476606  0.43088178  0.99091319  1 0.075311
  H  H95  1  0.94135426  0.37272919  0.23988299  1 0.092451
  H  H96  1  0.82346835  0.32956133  0.28749510  1 0.093378
  H  H97  1  0.70612109  0.30877301  0.17780796  1 0.088099
  H  H98  1  0.74333783  0.48254958  0.30751068  1 0.054179
  H  H99  1  0.73809243  0.45559505  0.22659038  1 0.094073
  C  C100  1  0.99550219  0.19699253  0.56963798  1 0.035065
  C  C101  1  0.70484511  0.19213531  0.78867490  1 0.024781
  C  C102  1  0.41677439  0.88829136  0.79403261  1 0.036331
  C  C103  1  0.47083995  0.10056313  0.83943550  1 -0.158569
  C  C104  1  0.52892668  0.18671006  0.86500617  1 -0.060893
  C  C105  1  0.81360583  0.05200542  0.66110332  1 0.099204
  C  C106  1  0.68519927  0.15595496  0.63519658  1 0.037753
  C  C107  1  0.52178076  0.05641077  0.58120581  1 -0.087355
  C  C108  1  0.08937550  0.11078786  0.48166940  1 -0.076187
  C  C109  1  0.47356795  0.85778573  0.70171410  1 0.115818
  C  C110  1  0.06374245  0.01076971  0.48666218  1 -0.165776
  C  C111  1  0.71816747  0.33364365  0.78251500  1 0.11304
  C  C112  1  0.55704295  0.01769174  0.51827854  1 -0.151224
  C  C113  1  0.38563349  0.11257098  0.78101284  1 -0.164467
  C  C114  1  0.14962932  0.18544070  0.63489097  1 0.101951
  C  C115  1  0.30140897  0.03163677  0.76712378  1 -0.066422
  C  C116  1  0.50453203  0.69698989  0.93035728  1 0.036078
  C  C117  1  0.79515754  0.69214481  0.71132261  1 0.025083
  C  C118  1  0.08322197  0.38829030  0.70597919  1 0.037259
  C  C119  1  0.02915590  0.60056621  0.66056712  1 -0.158417
  C  C120  1  0.97108016  0.68670725  0.63499264  1 -0.0611
  C  C121  1  0.68638963  0.55200970  0.83889575  1 0.099287
  C  C122  1  0.81479739  0.65596694  0.86480495  1 0.037324
  C  C123  1  0.97820616  0.55641254  0.91879250  1 -0.087465
  C  C124  1  0.41062115  0.61078595  0.01832598  1 -0.076348
  C  C125  1  0.02643155  0.35778244  0.79828583  1 0.116467
  C  C126  1  0.43625953  0.51076851  0.01334129  1 -0.1658
  C  C127  1  0.78183111  0.83364580  0.71748624  1 0.113092
  C  C128  1  0.94296495  0.51769104  0.98172150  1 -0.151233
  C  C129  1  0.11436619  0.61257034  0.71898722  1 -0.16454
  C  C130  1  0.35037146  0.68544416  0.86510762  1 0.101912
  C  C131  1  0.19859664  0.53163991  0.73287484  1 -0.065812
  C  C132  1  0.00451242  0.80301544  0.43035611  1 0.03502
  C  C133  1  0.29515623  0.80786212  0.21132582  1 0.024936
  C  C134  1  0.58322539  0.11170914  0.20597649  1 0.037334
  C  C135  1  0.52916140  0.89943737  0.16056376  1 -0.158193
  C  C136  1  0.47107377  0.81329008  0.13499385  1 -0.061563
  C  C137  1  0.18639589  0.94799644  0.33889769  1 0.099169
  C  C138  1  0.31480249  0.84404409  0.36480310  1 0.036953
  C  C139  1  0.47821903  0.94358970  0.41879438  1 -0.087563
  C  C140  1  0.91062271  0.88921330  0.51832996  1 -0.076527
  C  C141  1  0.52643175  0.14221460  0.29828801  1 0.116215
  C  C142  1  0.93625784  0.98923032  0.51333845  1 -0.165837
  C  C143  1  0.28183328  0.66635217  0.21748501  1 0.112973
  C  C144  1  0.44295681  0.98230854  0.48172114  1 -0.151314
  C  C145  1  0.61436709  0.88742961  0.21898754  1 -0.164525
  C  C146  1  0.85037081  0.81455693  0.36510698  1 0.102057
  C  C147  1  0.69859535  0.96836055  0.23287511  1 -0.06573
  C  C148  1  0.49548603  0.30301748  0.06964631  1 0.035689
  C  C149  1  0.20483367  0.30783768  0.28868395  1 0.024912
  C  C150  1  0.91677160  0.61170875  0.29402007  1 0.037189
  C  C151  1  0.97084178  0.39943513  0.33943285  1 -0.158503
  C  C152  1  0.02890487  0.31329292  0.36500196  1 -0.060424
  C  C153  1  0.31361047  0.44799306  0.16110406  1 0.099238
  C  C154  1  0.18520434  0.34403864  0.13519591  1 0.037786
  C  C155  1  0.02179111  0.44358790  0.08120807  1 -0.087347
  C  C156  1  0.58937884  0.38921254  0.98167124  1 -0.076274
  C  C157  1  0.97356682  0.64221566  0.20171448  1 0.116156
  C  C158  1  0.56373990  0.48923135  0.98666007  1 -0.165679
  C  C159  1  0.21816145  0.16634843  0.28251480  1 0.112779
  C  C160  1  0.05703614  0.48230877  0.01827900  1 -0.151179
  C  C161  1  0.88563189  0.38743036  0.28101229  1 -0.164513
  C  C162  1  0.64963132  0.31455451  0.13489538  1 0.101779
  C  C163  1  0.80140304  0.46835605  0.26712536  1 -0.066263
  N  N164  1  0.09168982  0.15481106  0.54213518  1 0.126621
  N  N165  1  0.02961377  0.21725058  0.62894540  1 -0.277246
  N  N166  1  0.77284295  0.25709449  0.76258568  1 -0.269746
  N  N167  1  0.63488072  0.07621357  0.61853688  1 0.134142
  N  N168  1  0.61269304  0.22969077  0.82214437  1 0.130363
  N  N169  1  0.48282330  0.82807365  0.76203060  1 -0.265658
  N  N170  1  0.79921833  0.14237213  0.66241376  1 -0.255897
  N  N171  1  0.40611789  0.93198216  0.69422122  1 -0.285843
  N  N172  1  0.37051228  0.95086462  0.75364628  1 0.131251
  N  N173  1  0.62084330  0.32100337  0.81913178  1 -0.305321
  N  N174  1  0.71566188  0.00886279  0.63499347  1 -0.273387
  N  N175  1  0.19164123  0.14637837  0.58365952  1 -0.298969
  N  N176  1  0.40829129  0.65481654  0.95788793  1 0.126455
  N  N177  1  0.47038192  0.71726177  0.87105323  1 -0.277129
  N  N178  1  0.72716031  0.75708950  0.73741457  1 -0.269781
  N  N179  1  0.86513839  0.57620904  0.88146784  1 0.134153
  N  N180  1  0.88729569  0.72969130  0.67785931  1 0.13006
  N  N181  1  0.01718488  0.32808716  0.73796799  1 -0.265747
  N  N182  1  0.70077427  0.64237009  0.83758303  1 -0.255909
  N  N183  1  0.09388109  0.43198447  0.80577809  1 -0.285676
  N  N184  1  0.12947965  0.45085270  0.74634979  1 0.130947
  N  N185  1  0.87916144  0.82099953  0.68086750  1 -0.305696
  N  N186  1  0.78433991  0.50885368  0.86500719  1 -0.273274
  N  N187  1  0.30834602  0.64637028  0.91633387  1 -0.298695
  N  N188  1  0.90830493  0.84517980  0.45787373  1 0.126526
  N  N189  1  0.97038414  0.78274543  0.37105791  1 -0.27707
  N  N190  1  0.22715802  0.74290976  0.23741285  1 -0.269841
  N  N191  1  0.36511745  0.92378643  0.38146229  1 0.134165
  N  N192  1  0.38730247  0.77030948  0.17785581  1 0.130206
  N  N193  1  0.51718252  0.17191526  0.23796465  1 -0.265847
  N  N194  1  0.20077989  0.85762702  0.33758676  1 -0.255873
  N  N195  1  0.59387856  0.06801573  0.30577554  1 -0.285756
  N  N196  1  0.62948034  0.04914633  0.24635118  1 0.130958
  N  N197  1  0.37915659  0.67899730  0.18086698  1 -0.305371
  N  N198  1  0.28433597  0.99113689  0.36500621  1 -0.27306
  N  N199  1  0.80835088  0.85362675  0.41633834  1 -0.298506
  N  N200  1  0.59169795  0.34517516  0.04212072  1 0.12648
  N  N201  1  0.52961251  0.28274514  0.12894068  1 -0.277063
  N  N202  1  0.27284031  0.24291958  0.26258544  1 -0.269766
  N  N203  1  0.13486562  0.42378737  0.11853462  1 0.134167
  N  N204  1  0.11272194  0.27030442  0.32213019  1 0.130425
  N  N205  1  0.98281827  0.67191586  0.26203298  1 -0.265668
  N  N206  1  0.29921755  0.35762828  0.16241240  1 -0.25616
  N  N207  1  0.90611830  0.56801734  0.19422420  1 -0.285454
  N  N208  1  0.87052480  0.54914906  0.25364855  1 0.130992
  N  N209  1  0.12084600  0.17900947  0.31913313  1 -0.305264
  N  N210  1  0.21566278  0.49114475  0.13499153  1 -0.273192
  N  N211  1  0.69165010  0.35363120  0.08366213  1 -0.29866
