# generated using pymatgen
data_CuH10(C11O2)2
_symmetry_space_group_name_H-M   'P 1'
_cell_length_a   17.17129050
_cell_length_b   38.91800064
_cell_length_c   25.69388102
_cell_angle_alpha   89.99953208
_cell_angle_beta   100.91473641
_cell_angle_gamma   89.99947951
_symmetry_Int_Tables_number   1
_chemical_formula_structural   CuH10(C11O2)2
_chemical_formula_sum   'Cu12 H120 C264 O48'
_cell_volume   16859.89509781
_cell_formula_units_Z   12
loop_
 _symmetry_equiv_pos_site_id
 _symmetry_equiv_pos_as_xyz
  1  'x, y, z'
loop_
 _atom_site_type_symbol
 _atom_site_label
 _atom_site_symmetry_multiplicity
 _atom_site_fract_x
 _atom_site_fract_y
 _atom_site_fract_z
 _atom_site_occupancy
 _atom_site_charge
  Cu  Cu0  1  0.94565122  0.26567932  0.20798272  1 0.835813
  Cu  Cu1  1  0.06685327  0.25315964  0.27094827  1 0.836033
  Cu  Cu2  1  0.00589590  0.96884190  0.49971061  1 0.830818
  Cu  Cu3  1  0.05434882  0.76567817  0.29201554  1 0.835633
  Cu  Cu4  1  0.93314736  0.75315944  0.22905229  1 0.835823
  Cu  Cu5  1  0.99410355  0.46883711  0.00029042  1 0.830841
  Cu  Cu6  1  0.05434859  0.73432023  0.79201576  1 0.835593
  Cu  Cu7  1  0.93315012  0.74684036  0.72905438  1 0.83542
  Cu  Cu8  1  0.99410371  0.03116287  0.50029027  1 0.830837
  Cu  Cu9  1  0.94563367  0.23432044  0.70797533  1 0.835782
  Cu  Cu10  1  0.06686950  0.24684209  0.77095773  1 0.835838
  Cu  Cu11  1  0.00589365  0.53115816  0.99970974  1 0.830968
  H  H12  1  0.22331737  0.06477132  0.47504095  1 0.117687
  H  H13  1  0.35834925  0.06931873  0.45245670  1 0.110227
  H  H14  1  0.37492602  0.95873972  0.45127621  1 0.111409
  H  H15  1  0.23985992  0.95466212  0.47377287  1 0.119017
  H  H16  1  0.59752283  0.95961982  0.41059024  1 0.118133
  H  H17  1  0.79838224  0.01156166  0.36822745  1 0.113617
  H  H18  1  0.60060184  0.07034261  0.40129153  1 0.118978
  H  H19  1  0.70364837  0.87658834  0.30314723  1 0.111699
  H  H20  1  0.77055603  0.82532077  0.27284065  1 0.118954
  H  H21  1  0.98597295  0.85120840  0.38029352  1 0.118873
  H  H22  1  0.91970051  0.90274197  0.41079907  1 0.116719
  H  H23  1  0.93127880  0.11446699  0.38531903  1 0.114619
  H  H24  1  0.00006382  0.16408978  0.35177094  1 0.118073
  H  H25  1  0.77718783  0.20015035  0.26355230  1 0.117936
  H  H26  1  0.70762319  0.15087383  0.29736265  1 0.111296
  H  H27  1  0.06665715  0.94465957  0.66466164  1 0.109777
  H  H28  1  0.09170093  0.94416556  0.76341712  1 0.113951
  H  H29  1  0.09067624  0.05513514  0.76402602  1 0.114429
  H  H30  1  0.06480386  0.05518032  0.66527411  1 0.109184
  H  H31  1  0.10095689  0.05766990  0.93113012  1 0.120632
  H  H32  1  0.10395189  0.00673194  0.08058055  1 0.124157
  H  H33  1  0.10203822  0.94682737  0.93913739  1 0.12177
  H  H34  1  0.97399218  0.13968431  0.03358932  1 0.109623
  H  H35  1  0.95253439  0.19149287  0.08655616  1 0.120226
  H  H36  1  0.16667807  0.16930241  0.19775704  1 0.118541
  H  H37  1  0.18964220  0.11767667  0.14469905  1 0.112691
  H  H38  1  0.96875488  0.87457609  0.04837791  1 0.105342
  H  H39  1  0.94231212  0.82525100  0.10506939  1 0.120623
  H  H40  1  0.15692759  0.84745349  0.21573826  1 0.118579
  H  H41  1  0.18438107  0.89675545  0.15934119  1 0.113138
  H  H42  1  0.77667853  0.56477588  0.02496069  1 0.117701
  H  H43  1  0.64165018  0.56932081  0.04754456  1 0.110231
  H  H44  1  0.62507820  0.45874188  0.04872254  1 0.111402
  H  H45  1  0.76014834  0.45466596  0.02622507  1 0.11899
  H  H46  1  0.40247922  0.45962694  0.08940753  1 0.11827
  H  H47  1  0.20161672  0.51157017  0.13177012  1 0.113585
  H  H48  1  0.39939618  0.57034965  0.09870898  1 0.118949
  H  H49  1  0.29633979  0.37659168  0.19684598  1 0.11178
  H  H50  1  0.22945315  0.32532442  0.22715954  1 0.118968
  H  H51  1  0.01402241  0.35121473  0.11969831  1 0.118857
  H  H52  1  0.08030599  0.40274420  0.08920267  1 0.116761
  H  H53  1  0.06871349  0.61446713  0.11467779  1 0.114654
  H  H54  1  0.99993856  0.66409422  0.14823508  1 0.118063
  H  H55  1  0.22280075  0.70015134  0.23644620  1 0.117922
  H  H56  1  0.29238648  0.65087587  0.20264077  1 0.111372
  H  H57  1  0.93334465  0.44466197  0.83534501  1 0.109782
  H  H58  1  0.90830051  0.44416737  0.73658644  1 0.113983
  H  H59  1  0.90932510  0.55513658  0.73597486  1 0.114411
  H  H60  1  0.93519637  0.55518309  0.83472305  1 0.109202
  H  H61  1  0.89904337  0.55767636  0.56886791  1 0.120588
  H  H62  1  0.89604779  0.50673953  0.41941995  1 0.124187
  H  H63  1  0.89796126  0.44683379  0.56086600  1 0.121753
  H  H64  1  0.02601620  0.63968556  0.46641436  1 0.109723
  H  H65  1  0.04745818  0.69149425  0.41343494  1 0.120198
  H  H66  1  0.83332929  0.66930621  0.30224090  1 0.11852
  H  H67  1  0.81034856  0.61767660  0.35529620  1 0.11273
  H  H68  1  0.03123530  0.37457843  0.45161671  1 0.105369
  H  H69  1  0.05769417  0.32525377  0.39493708  1 0.120593
  H  H70  1  0.84306361  0.34745916  0.28426104  1 0.118522
  H  H71  1  0.81562714  0.39675706  0.34066297  1 0.113077
  H  H72  1  0.77667826  0.93522412  0.52495896  1 0.117723
  H  H73  1  0.64164939  0.93067948  0.54754322  1 0.110239
  H  H74  1  0.62507577  0.04125838  0.54872302  1 0.111338
  H  H75  1  0.76014664  0.04533376  0.52622530  1 0.119008
  H  H76  1  0.40248177  0.04037402  0.58940768  1 0.11818
  H  H77  1  0.20161902  0.98843160  0.63177121  1 0.113619
  H  H78  1  0.39939882  0.92965165  0.59870796  1 0.118947
  H  H79  1  0.29634051  0.12341510  0.69685204  1 0.111632
  H  H80  1  0.22944666  0.17468078  0.72716246  1 0.118949
  H  H81  1  0.01401844  0.14879137  0.61970413  1 0.118982
  H  H82  1  0.08029818  0.09726260  0.58920558  1 0.116779
  H  H83  1  0.06871211  0.88553500  0.61467370  1 0.114693
  H  H84  1  0.99994239  0.83590708  0.64823271  1 0.118124
  H  H85  1  0.22280269  0.79984881  0.73644508  1 0.117916
  H  H86  1  0.29239151  0.84912376  0.70264093  1 0.111423
  H  H87  1  0.93334346  0.05533633  0.33534307  1 0.109794
  H  H88  1  0.90829898  0.05583171  0.23658467  1 0.113934
  H  H89  1  0.90932454  0.94486233  0.23597529  1 0.114428
  H  H90  1  0.93519624  0.94481519  0.33472349  1 0.10912
  H  H91  1  0.89904330  0.94232450  0.06886911  1 0.120678
  H  H92  1  0.89604715  0.99326119  0.91942000  1 0.124152
  H  H93  1  0.89796027  0.05316699  0.06086549  1 0.121787
  H  H94  1  0.02601814  0.86031408  0.96641983  1 0.109718
  H  H95  1  0.04745834  0.80850561  0.91343927  1 0.12017
  H  H96  1  0.83333042  0.83069511  0.80224603  1 0.118581
  H  H97  1  0.81034422  0.88232502  0.85529850  1 0.112694
  H  H98  1  0.03124239  0.12542698  0.95161412  1 0.105383
  H  H99  1  0.05769417  0.17475027  0.89493046  1 0.120535
  H  H100  1  0.84306774  0.15254655  0.78425589  1 0.118541
  H  H101  1  0.81562575  0.10324884  0.84065533  1 0.113097
  H  H102  1  0.22331509  0.43522873  0.97504129  1 0.117687
  H  H103  1  0.35834717  0.43068094  0.95245688  1 0.1102
  H  H104  1  0.37492248  0.54125984  0.95127796  1 0.111454
  H  H105  1  0.23985624  0.54533792  0.97377459  1 0.119062
  H  H106  1  0.59752136  0.54037863  0.91059294  1 0.118129
  H  H107  1  0.79838289  0.48843655  0.86823132  1 0.113706
  H  H108  1  0.60060003  0.42965638  0.90129289  1 0.119084
  H  H109  1  0.70364624  0.62341003  0.80314950  1 0.111678
  H  H110  1  0.77055598  0.67467695  0.77284400  1 0.118914
  H  H111  1  0.98597135  0.64878887  0.88029714  1 0.118849
  H  H112  1  0.91970424  0.59725453  0.91080575  1 0.116798
  H  H113  1  0.93128961  0.38552820  0.88531745  1 0.114691
  H  H114  1  0.00006990  0.33590567  0.85176648  1 0.118084
  H  H115  1  0.77719713  0.29984670  0.76355063  1 0.117984
  H  H116  1  0.70762543  0.34912126  0.79735866  1 0.111297
  H  H117  1  0.06665523  0.55534229  0.16465727  1 0.109697
  H  H118  1  0.09169931  0.55583566  0.26341195  1 0.113958
  H  H119  1  0.09067579  0.44486608  0.26402374  1 0.114395
  H  H120  1  0.06480343  0.44482088  0.16527283  1 0.109239
  H  H121  1  0.10095644  0.44232997  0.43112845  1 0.120612
  H  H122  1  0.10395280  0.49326720  0.58057944  1 0.124143
  H  H123  1  0.10203839  0.55317227  0.43913542  1 0.121764
  H  H124  1  0.97398579  0.36031088  0.53359256  1 0.109733
  H  H125  1  0.95253460  0.30850405  0.58656372  1 0.120224
  H  H126  1  0.16667444  0.33069251  0.69776320  1 0.11848
  H  H127  1  0.18964456  0.38231776  0.64470709  1 0.112726
  H  H128  1  0.96875362  0.62542369  0.54837396  1 0.105345
  H  H129  1  0.94231292  0.67474807  0.60506754  1 0.120574
  H  H130  1  0.15692770  0.65254399  0.71573493  1 0.118676
  H  H131  1  0.18438653  0.60324176  0.65933981  1 0.113256
  C  C132  1  0.14228529  0.00656264  0.48664397  1 0.576088
  C  C133  1  0.22358538  0.00945157  0.47507435  1 -0.034129
  C  C134  1  0.25706560  0.04181150  0.46950101  1 -0.083461
  C  C135  1  0.33210627  0.04427768  0.45708644  1 -0.131131
  C  C136  1  0.37514788  0.01428473  0.44984928  1 0.145254
  C  C137  1  0.34131377  0.98184804  0.45628260  1 -0.123472
  C  C138  1  0.26643354  0.97954305  0.46877157  1 -0.081522
  C  C139  1  0.45072861  0.01608999  0.43586495  1 -0.105773
  C  C140  1  0.51549727  0.01616099  0.42289827  1 -0.099873
  C  C141  1  0.59074052  0.01514154  0.40811777  1 0.141763
  C  C142  1  0.62738431  0.98327869  0.40324655  1 -0.160981
  C  C143  1  0.70235375  0.98187123  0.38902341  1 0.140238
  C  C144  1  0.74088205  0.01252727  0.37995375  1 -0.147391
  C  C145  1  0.70437091  0.04446971  0.38412176  1 0.145547
  C  C146  1  0.62926606  0.04567942  0.39820238  1 -0.168413
  C  C147  1  0.73872444  0.94988973  0.38215977  1 -0.090154
  C  C148  1  0.77078132  0.92313042  0.37335466  1 -0.099678
  C  C149  1  0.80744104  0.89291352  0.35903915  1 0.144613
  C  C150  1  0.76517736  0.87066997  0.32032000  1 -0.130639
  C  C151  1  0.80231795  0.84224972  0.30337393  1 -0.085884
  C  C152  1  0.88213677  0.83523973  0.32472080  1 -0.032655
  C  C153  1  0.92401870  0.85685571  0.36402166  1 -0.084362
  C  C154  1  0.88726406  0.88541879  0.38108337  1 -0.129878
  C  C155  1  0.92276713  0.80601941  0.30359357  1 0.579362
  C  C156  1  0.74281816  0.07498214  0.37251337  1 -0.090998
  C  C157  1  0.77631826  0.10051417  0.36021763  1 -0.109562
  C  C158  1  0.81504428  0.12939406  0.34335038  1 0.146375
  C  C159  1  0.89788920  0.13342056  0.35884918  1 -0.131326
  C  C160  1  0.93607123  0.16100438  0.34025677  1 -0.084376
  C  C161  1  0.89268937  0.18498907  0.30554586  1 -0.032013
  C  C162  1  0.81016532  0.18137944  0.29050345  1 -0.083972
  C  C163  1  0.77157974  0.15403865  0.30932485  1 -0.129664
  C  C164  1  0.93432214  0.21332946  0.28301220  1 0.580896
  C  C165  1  0.04235297  0.00006794  0.60036004  1 0.575397
  C  C166  1  0.06295264  0.99992540  0.65915556  1 -0.042663
  C  C167  1  0.07201444  0.96864235  0.68685318  1 -0.081559
  C  C168  1  0.08622789  0.96840950  0.74182013  1 -0.126266
  C  C169  1  0.09172938  0.99965704  0.77026132  1 0.148059
  C  C170  1  0.08553394  0.03102969  0.74210781  1 -0.125441
  C  C171  1  0.07101452  0.03107714  0.68717295  1 -0.076588
  C  C172  1  0.09977803  0.99981448  0.82601035  1 -0.106257
  C  C173  1  0.10210324  0.00060232  0.87374904  1 -0.100089
  C  C174  1  0.10321748  0.00207210  0.92892871  1 0.143609
  C  C175  1  0.10266310  0.03413435  0.95418559  1 -0.159434
  C  C176  1  0.10330278  0.03589576  0.00883261  1 0.141134
  C  C177  1  0.10455808  0.00543567  0.03836344  1 -0.160122
  C  C178  1  0.10356088  0.97330904  0.01326791  1 0.139769
  C  C179  1  0.10318554  0.97169547  0.95861827  1 -0.159665
  C  C180  1  0.09962602  0.06802675  0.03429399  1 -0.095503
  C  C181  1  0.09336512  0.09489725  0.05756057  1 -0.109109
  C  C182  1  0.08314679  0.12526665  0.08586966  1 0.143621
  C  C183  1  0.01645343  0.14647753  0.06920455  1 -0.130609
  C  C184  1  0.00436897  0.17520963  0.09867851  1 -0.081517
  C  C185  1  0.05821230  0.18336739  0.14524205  1 -0.031773
  C  C186  1  0.12539292  0.16272433  0.16151736  1 -0.084233
  C  C187  1  0.13796266  0.13401106  0.13214523  1 -0.128937
  C  C188  1  0.04188099  0.21283848  0.17851010  1 0.580417
  C  C189  1  0.09935100  0.94289321  0.04298481  1 -0.095021
  C  C190  1  0.09149689  0.91749590  0.06926844  1 -0.107811
  C  C191  1  0.07838054  0.88875440  0.10023311  1 0.145564
  C  C192  1  0.01009889  0.86827427  0.08476592  1 -0.133174
  C  C193  1  0.99531860  0.84096704  0.11627158  1 -0.083222
  C  C194  1  0.04809097  0.83352194  0.16363285  1 -0.032014
  C  C195  1  0.11657147  0.85352928  0.17886847  1 -0.083636
  C  C196  1  0.13172839  0.88087704  0.14757438  1 -0.130509
  C  C197  1  0.02983270  0.80532118  0.19855512  1 0.580823
  C  C198  1  0.85771590  0.50656242  0.01335632  1 0.576216
  C  C199  1  0.77641665  0.50945453  0.02492578  1 -0.034164
  C  C200  1  0.74293504  0.54181451  0.03049980  1 -0.083384
  C  C201  1  0.66789433  0.54427977  0.04291447  1 -0.131111
  C  C202  1  0.62485472  0.51428655  0.05015111  1 0.145188
  C  C203  1  0.65869032  0.48185012  0.04371686  1 -0.123467
  C  C204  1  0.73357051  0.47954584  0.03122758  1 -0.081614
  C  C205  1  0.54927349  0.51609098  0.06413535  1 -0.105563
  C  C206  1  0.48450463  0.51616447  0.07710150  1 -0.099889
  C  C207  1  0.40926044  0.51514755  0.09188145  1 0.141548
  C  C208  1  0.37261497  0.48328489  0.09675143  1 -0.161101
  C  C209  1  0.29764347  0.48187606  0.11097308  1 0.14003
  C  C210  1  0.25911661  0.51253284  0.12004301  1 -0.147135
  C  C211  1  0.29563021  0.54447451  0.11587647  1 0.145411
  C  C212  1  0.37073506  0.54568538  0.10179682  1 -0.168228
  C  C213  1  0.26127164  0.44989331  0.11783569  1 -0.089868
  C  C214  1  0.22921656  0.42313288  0.12663965  1 -0.099925
  C  C215  1  0.19255677  0.39291488  0.14095606  1 0.144633
  C  C216  1  0.23481364  0.37066994  0.17967539  1 -0.130766
  C  C217  1  0.19767573  0.34224922  0.19662468  1 -0.085798
  C  C218  1  0.11785534  0.33523710  0.17528044  1 -0.032693
  C  C219  1  0.07597787  0.35685537  0.13597766  1 -0.084299
  C  C220  1  0.11273595  0.38541823  0.11891600  1 -0.130035
  C  C221  1  0.07722520  0.30601642  0.19640896  1 0.579408
  C  C222  1  0.25718329  0.57498483  0.12748641  1 -0.091024
  C  C223  1  0.22368123  0.60051512  0.13978452  1 -0.109542
  C  C224  1  0.18495599  0.62939351  0.15665195  1 0.146359
  C  C225  1  0.10210876  0.63341797  0.14115005  1 -0.131281
  C  C226  1  0.06392979  0.66100190  0.15974266  1 -0.084417
  C  C227  1  0.10731640  0.68498439  0.19445177  1 -0.031712
  C  C228  1  0.18983896  0.68137688  0.20949604  1 -0.084273
  C  C229  1  0.22842771  0.65403695  0.19067707  1 -0.129665
  C  C230  1  0.06568530  0.71332458  0.21698475  1 0.580943
  C  C231  1  0.95764740  0.50006568  0.89964224  1 0.575362
  C  C232  1  0.93704810  0.49992675  0.84084687  1 -0.042534
  C  C233  1  0.92798627  0.46864380  0.81315059  1 -0.081754
  C  C234  1  0.91377291  0.46841076  0.75818347  1 -0.126338
  C  C235  1  0.90827177  0.49965796  0.72974074  1 0.148059
  C  C236  1  0.91446709  0.53103068  0.75789312  1 -0.125273
  C  C237  1  0.92898654  0.53107856  0.81282808  1 -0.076643
  C  C238  1  0.90022399  0.49981419  0.67399160  1 -0.106311
  C  C239  1  0.89789794  0.50060502  0.62625275  1 -0.099966
  C  C240  1  0.89678245  0.50207718  0.57107261  1 0.143423
  C  C241  1  0.89733681  0.53413949  0.54581532  1 -0.159132
  C  C242  1  0.89669704  0.53589927  0.49116867  1 0.141002
  C  C243  1  0.89544147  0.50544018  0.46163690  1 -0.160346
  C  C244  1  0.89643804  0.47331279  0.48673171  1 0.140186
  C  C245  1  0.89681366  0.47170093  0.54138230  1 -0.159852
  C  C246  1  0.90037443  0.56802855  0.46570615  1 -0.095519
  C  C247  1  0.90663775  0.59489721  0.44243667  1 -0.109041
  C  C248  1  0.91685551  0.62526543  0.41412789  1 0.143758
  C  C249  1  0.98355134  0.64647488  0.43079726  1 -0.130782
  C  C250  1  0.99563073  0.67520648  0.40132203  1 -0.081563
  C  C251  1  0.94178396  0.68336256  0.35476033  1 -0.031623
  C  C252  1  0.87460389  0.66272177  0.33848190  1 -0.084201
  C  C253  1  0.86203317  0.63400820  0.36785225  1 -0.129122
  C  C254  1  0.95811339  0.71283415  0.32149296  1 0.58048
  C  C255  1  0.90064749  0.44289546  0.45701491  1 -0.095021
  C  C256  1  0.90850018  0.41749690  0.43073279  1 -0.107834
  C  C257  1  0.92161652  0.38875435  0.39976751  1 0.14543
  C  C258  1  0.98989570  0.36827303  0.41522989  1 -0.133048
  C  C259  1  0.00468092  0.34096557  0.38372512  1 -0.083262
  C  C260  1  0.95191139  0.33351875  0.33636212  1 -0.031995
  C  C261  1  0.88343041  0.35352847  0.32112988  1 -0.083561
  C  C262  1  0.86827489  0.38087572  0.35242646  1 -0.130435
  C  C263  1  0.97017143  0.30531816  0.30143972  1 0.581081
  C  C264  1  0.85771557  0.99343747  0.51335704  1 0.576232
  C  C265  1  0.77641530  0.99054535  0.52492543  1 -0.034224
  C  C266  1  0.74293397  0.95818538  0.53049857  1 -0.083393
  C  C267  1  0.66789324  0.95572038  0.54291327  1 -0.131146
  C  C268  1  0.62485308  0.98571366  0.55015074  1 0.145197
  C  C269  1  0.65868795  0.01815012  0.54371665  1 -0.123295
  C  C270  1  0.73356819  0.02045410  0.53122735  1 -0.081634
  C  C271  1  0.54927235  0.98390935  0.56413549  1 -0.105728
  C  C272  1  0.48450332  0.98383653  0.57710165  1 -0.099828
  C  C273  1  0.40925944  0.98485409  0.59188206  1 0.1415
  C  C274  1  0.37261453  0.01671729  0.59675284  1 -0.160861
  C  C275  1  0.29764393  0.01812755  0.61097610  1 0.140092
  C  C276  1  0.25911961  0.98746991  0.62004500  1 -0.147289
  C  C277  1  0.29563284  0.95552763  0.61587719  1 0.145293
  C  C278  1  0.37073655  0.95431579  0.60179700  1 -0.168097
  C  C279  1  0.26127184  0.05011075  0.61784043  1 -0.090087
  C  C280  1  0.22921690  0.07687146  0.62664514  1 -0.09961
  C  C281  1  0.19255519  0.10708960  0.64096112  1 0.144503
  C  C282  1  0.23481315  0.12933400  0.67968018  1 -0.130501
  C  C283  1  0.19767487  0.15775413  0.69662922  1 -0.085997
  C  C284  1  0.11785567  0.16476417  0.67528308  1 -0.032438
  C  C285  1  0.07597432  0.14314827  0.63598111  1 -0.084514
  C  C286  1  0.11273290  0.11458603  0.61891987  1 -0.129936
  C  C287  1  0.07722697  0.19398428  0.69641026  1 0.579308
  C  C288  1  0.25718569  0.92501699  0.62748581  1 -0.091106
  C  C289  1  0.22368395  0.89948628  0.63978260  1 -0.10952
  C  C290  1  0.18495883  0.87060790  0.65664949  1 0.146471
  C  C291  1  0.10211102  0.86658434  0.64114640  1 -0.131359
  C  C292  1  0.06393352  0.83900020  0.65973953  1 -0.08456
  C  C293  1  0.10732120  0.81501752  0.69444915  1 -0.031603
  C  C294  1  0.18984342  0.81862428  0.70949424  1 -0.084301
  C  C295  1  0.22843220  0.84596410  0.69067536  1 -0.129695
  C  C296  1  0.06569053  0.78667681  0.71698283  1 0.580799
  C  C297  1  0.95764677  0.99993232  0.39964133  1 0.575365
  C  C298  1  0.93704656  0.00007149  0.34084578  1 -0.042634
  C  C299  1  0.92798461  0.03135466  0.31314882  1 -0.081629
  C  C300  1  0.91377127  0.03158813  0.25818189  1 -0.126257
  C  C301  1  0.90826989  0.00034100  0.22973954  1 0.147982
  C  C302  1  0.91446588  0.96896810  0.25789278  1 -0.125381
  C  C303  1  0.92898554  0.96891973  0.31282779  1 -0.076489
  C  C304  1  0.90022192  0.00018526  0.17399035  1 -0.106353
  C  C305  1  0.89789659  0.99939563  0.12625135  1 -0.099941
  C  C306  1  0.89678151  0.99792402  0.07107125  1 0.14341
  C  C307  1  0.89733613  0.96586149  0.04581572  1 -0.159274
  C  C308  1  0.89669618  0.96410240  0.99116911  1 0.141099
  C  C309  1  0.89544088  0.99456190  0.96163678  1 -0.16021
  C  C310  1  0.89643796  0.02668993  0.98672944  1 0.139826
  C  C311  1  0.89681290  0.02830058  0.04138027  1 -0.15976
  C  C312  1  0.90037341  0.93197292  0.96570788  1 -0.09538
  C  C313  1  0.90663609  0.90510370  0.94244032  1 -0.109302
  C  C314  1  0.91685380  0.87473549  0.91413250  1 0.14376
  C  C315  1  0.98355113  0.85352579  0.93080291  1 -0.130747
  C  C316  1  0.99563085  0.82479425  0.90132787  1 -0.081426
  C  C317  1  0.94178386  0.81663892  0.85476644  1 -0.03163
  C  C318  1  0.87460326  0.83728016  0.83848745  1 -0.084396
  C  C319  1  0.86203058  0.86599377  0.86785676  1 -0.12897
  C  C320  1  0.95811376  0.78716719  0.82149829  1 0.580235
  C  C321  1  0.90064891  0.05710754  0.95701195  1 -0.094705
  C  C322  1  0.90850395  0.08250642  0.93072982  1 -0.108048
  C  C323  1  0.92161975  0.11124897  0.89976400  1 0.145485
  C  C324  1  0.98989943  0.13172983  0.91522753  1 -0.133203
  C  C325  1  0.00468340  0.15903680  0.88372247  1 -0.083075
  C  C326  1  0.95191125  0.16648180  0.83636084  1 -0.031982
  C  C327  1  0.88343074  0.14647428  0.82112551  1 -0.083567
  C  C328  1  0.86827631  0.11912746  0.85242218  1 -0.130464
  C  C329  1  0.97016888  0.19468202  0.80143984  1 0.581029
  C  C330  1  0.14228204  0.49343744  0.98664328  1 0.576393
  C  C331  1  0.22358220  0.49054847  0.97507457  1 -0.034273
  C  C332  1  0.25706316  0.45818850  0.96950137  1 -0.083298
  C  C333  1  0.33210416  0.45572215  0.95708689  1 -0.131191
  C  C334  1  0.37514567  0.48571489  0.94984988  1 0.14518
  C  C335  1  0.34131068  0.51815152  0.95628393  1 -0.123421
  C  C336  1  0.26643022  0.52045686  0.96877287  1 -0.08161
  C  C337  1  0.45072723  0.48390949  0.93586560  1 -0.105451
  C  C338  1  0.51549646  0.48383784  0.92289968  1 -0.100133
  C  C339  1  0.59074083  0.48485665  0.90811958  1 0.141544
  C  C340  1  0.62738364  0.51671955  0.90324942  1 -0.160725
  C  C341  1  0.70235392  0.51812613  0.88902720  1 0.140281
  C  C342  1  0.74088276  0.48746985  0.87995700  1 -0.147475
  C  C343  1  0.70437336  0.45552686  0.88412324  1 0.145546
  C  C344  1  0.62926747  0.45431869  0.89820390  1 -0.168502
  C  C345  1  0.73872540  0.55010734  0.88216466  1 -0.090007
  C  C346  1  0.77078214  0.57686657  0.87335994  1 -0.100013
  C  C347  1  0.80744123  0.60708322  0.85904455  1 0.144721
  C  C348  1  0.76517560  0.62932681  0.82032406  1 -0.130572
  C  C349  1  0.80231591  0.65774700  0.80337781  1 -0.085904
  C  C350  1  0.88213450  0.66475662  0.82472504  1 -0.032698
  C  C351  1  0.92401723  0.64314044  0.86402660  1 -0.08429
  C  C352  1  0.88726456  0.61457714  0.88108937  1 -0.130015
  C  C353  1  0.92276491  0.69397728  0.80359724  1 0.579745
  C  C354  1  0.74282125  0.42501461  0.87251309  1 -0.091083
  C  C355  1  0.77632218  0.39948310  0.86021541  1 -0.109498
  C  C356  1  0.81504901  0.37060347  0.84334769  1 0.146465
  C  C357  1  0.89789507  0.36657714  0.85884715  1 -0.13164
  C  C358  1  0.93607722  0.33899406  0.84025472  1 -0.084367
  C  C359  1  0.89269113  0.31501164  0.80554480  1 -0.03166
  C  C360  1  0.81016822  0.31861930  0.79050113  1 -0.084065
  C  C361  1  0.77158252  0.34595938  0.80932224  1 -0.12974
  C  C362  1  0.93432139  0.28667191  0.78301233  1 0.580824
  C  C363  1  0.04235201  0.49993465  0.10035772  1 0.575059
  C  C364  1  0.06295115  0.50007630  0.15915256  1 -0.042427
  C  C365  1  0.07201254  0.53135928  0.18684917  1 -0.081635
  C  C366  1  0.08622645  0.53159163  0.24181621  1 -0.126153
  C  C367  1  0.09172840  0.50034414  0.27025848  1 0.14792
  C  C368  1  0.08553316  0.46897174  0.24210527  1 -0.12544
  C  C369  1  0.07101356  0.46892437  0.18717038  1 -0.076599
  C  C370  1  0.09977732  0.50018644  0.32600793  1 -0.106345
  C  C371  1  0.10210241  0.49939766  0.37374687  1 -0.099949
  C  C372  1  0.10321700  0.49792719  0.42892723  1 0.143535
  C  C373  1  0.10266278  0.46586465  0.45418530  1 -0.15926
  C  C374  1  0.10330241  0.46410173  0.50883274  1 0.140931
  C  C375  1  0.10455823  0.49456229  0.53836218  1 -0.160072
  C  C376  1  0.10356119  0.52668926  0.51326608  1 0.139893
  C  C377  1  0.10318546  0.52830377  0.45861624  1 -0.15974
  C  C378  1  0.09962466  0.43197053  0.53429561  1 -0.095426
  C  C379  1  0.09336207  0.40510048  0.55756392  1 -0.109202
  C  C380  1  0.08314382  0.37473111  0.58587431  1 0.143801
  C  C381  1  0.01644969  0.35352078  0.56920827  1 -0.13079
  C  C382  1  0.00436603  0.32478933  0.59868260  1 -0.081503
  C  C383  1  0.05821169  0.31663332  0.64524519  1 -0.031908
  C  C384  1  0.12539261  0.33727381  0.66152291  1 -0.083944
  C  C385  1  0.13796158  0.36598649  0.63215036  1 -0.129163
  C  C386  1  0.04188266  0.28716263  0.67851177  1 0.580504
  C  C387  1  0.09935210  0.55710502  0.54298255  1 -0.094983
  C  C388  1  0.09149885  0.58250238  0.56926551  1 -0.107969
  C  C389  1  0.07838273  0.61124366  0.60022984  1 0.145739
  C  C390  1  0.01009976  0.63172395  0.58476165  1 -0.133236
  C  C391  1  0.99531924  0.65903085  0.61626782  1 -0.082952
  C  C392  1  0.04809203  0.66647496  0.66362911  1 -0.0322
  C  C393  1  0.11657339  0.64646738  0.67886488  1 -0.083773
  C  C394  1  0.13173194  0.61911984  0.64757123  1 -0.130662
  C  C395  1  0.02983320  0.69467574  0.69855202  1 0.580817
  O  O396  1  0.11546012  0.97613849  0.49058894  1 -0.522412
  O  O397  1  0.88241726  0.78921839  0.26474645  1 -0.524057
  O  O398  1  0.99526241  0.80030650  0.32483121  1 -0.517908
  O  O399  1  0.89347367  0.23082567  0.24519612  1 -0.523338
  O  O400  1  0.00803128  0.21770706  0.30234936  1 -0.519914
  O  O401  1  0.03919891  0.97088560  0.57696428  1 -0.523569
  O  O402  1  0.97754248  0.22958322  0.16276194  1 -0.521521
  O  O403  1  0.09247334  0.21873671  0.22099123  1 -0.519457
  O  O404  1  0.07820702  0.80086614  0.24250010  1 -0.520626
  O  O405  1  0.96641991  0.78802183  0.18244587  1 -0.52161
  O  O406  1  0.10474040  0.03452673  0.49111006  1 -0.518117
  O  O407  1  0.02852554  0.02929289  0.57753134  1 -0.521922
  O  O408  1  0.88453806  0.47613769  0.00941047  1 -0.522395
  O  O409  1  0.11757643  0.28921453  0.23525464  1 -0.524103
  O  O410  1  0.00473050  0.30030522  0.17517202  1 -0.517914
  O  O411  1  0.10653493  0.73082165  0.25479925  1 -0.523413
  O  O412  1  0.99197424  0.71770205  0.19764974  1 -0.519853
  O  O413  1  0.96080040  0.47088252  0.92303571  1 -0.523604
  O  O414  1  0.02245402  0.72957804  0.33723889  1 -0.521551
  O  O415  1  0.90751847  0.71873462  0.27901268  1 -0.519412
  O  O416  1  0.92179672  0.30086337  0.25749597  1 -0.520774
  O  O417  1  0.03358534  0.28801985  0.31754933  1 -0.521815
  O  O418  1  0.89526310  0.53452528  0.00889111  1 -0.518251
  O  O419  1  0.97147518  0.52928912  0.92247248  1 -0.521894
  O  O420  1  0.88453796  0.02386243  0.50941280  1 -0.52257
  O  O421  1  0.11758375  0.21078529  0.73525471  1 -0.524122
  O  O422  1  0.00473090  0.19969390  0.67517206  1 -0.517903
  O  O423  1  0.10653911  0.76917921  0.75479801  1 -0.523296
  O  O424  1  0.99197921  0.78229918  0.69764783  1 -0.519795
  O  O425  1  0.96079909  0.02911563  0.42303433  1 -0.523566
  O  O426  1  0.02245393  0.77042210  0.83724347  1 -0.521453
  O  O427  1  0.90752031  0.78126768  0.77901736  1 -0.519252
  O  O428  1  0.92179009  0.19913621  0.75749713  1 -0.520763
  O  O429  1  0.03358369  0.21197879  0.81755271  1 -0.521743
  O  O430  1  0.89526339  0.96547435  0.50889092  1 -0.518053
  O  O431  1  0.97147638  0.97070847  0.42247195  1 -0.521904
  O  O432  1  0.11545648  0.52386137  0.99058911  1 -0.522637
  O  O433  1  0.88241557  0.71077965  0.76475060  1 -0.524194
  O  O434  1  0.99526062  0.69968926  0.82483368  1 -0.518036
  O  O435  1  0.89346707  0.26917658  0.74519801  1 -0.523391
  O  O436  1  0.00803121  0.28229600  0.80235103  1 -0.519828
  O  O437  1  0.03919789  0.52911697  0.07696207  1 -0.523406
  O  O438  1  0.97754202  0.27042002  0.66276155  1 -0.521542
  O  O439  1  0.09248046  0.28126457  0.72099107  1 -0.519486
  O  O440  1  0.07820793  0.69913110  0.74249659  1 -0.520589
  O  O441  1  0.96641896  0.71197509  0.68244407  1 -0.521498
  O  O442  1  0.10473793  0.46547343  0.99110821  1 -0.518175
  O  O443  1  0.02852514  0.47071009  0.07752964  1 -0.521869
