# generated using pymatgen
data_Cu4H20C37O20
_symmetry_space_group_name_H-M   'P 1'
_cell_length_a   12.19920046
_cell_length_b   26.30093671
_cell_length_c   26.41050997
_cell_angle_alpha   89.99815430
_cell_angle_beta   89.99802435
_cell_angle_gamma   90.00400661
_symmetry_Int_Tables_number   1
_chemical_formula_structural   Cu4H20C37O20
_chemical_formula_sum   'Cu16 H80 C148 O80'
_cell_volume   8473.82263792
_cell_formula_units_Z   4
loop_
 _symmetry_equiv_pos_site_id
 _symmetry_equiv_pos_as_xyz
  1  'x, y, z'
loop_
 _atom_site_type_symbol
 _atom_site_label
 _atom_site_symmetry_multiplicity
 _atom_site_fract_x
 _atom_site_fract_y
 _atom_site_fract_z
 _atom_site_occupancy
 _atom_site_charge
  Cu  Cu0  1  0.07026830  0.99453017  0.03275139  1 0.836906
  Cu  Cu1  1  0.92958238  0.00550126  0.53281493  1 0.83783
  Cu  Cu2  1  0.92966818  0.49450761  0.46722942  1 0.839141
  Cu  Cu3  1  0.07043456  0.50550536  0.96717331  1 0.835181
  Cu  Cu4  1  0.92956476  0.00549541  0.96716736  1 0.836775
  Cu  Cu5  1  0.07040103  0.99450484  0.46719996  1 0.837097
  Cu  Cu6  1  0.07033632  0.50549254  0.53277038  1 0.837965
  Cu  Cu7  1  0.92986372  0.49451912  0.03268419  1 0.839404
  Cu  Cu8  1  0.00344107  0.70764594  0.75000527  1 0.848349
  Cu  Cu9  1  0.86111982  0.77351143  0.75001218  1 0.821553
  Cu  Cu10  1  0.99655559  0.29234546  0.25001218  1 0.84806
  Cu  Cu11  1  0.13888804  0.22648184  0.24999903  1 0.82109
  Cu  Cu12  1  0.99662489  0.20766473  0.75000348  1 0.847769
  Cu  Cu13  1  0.13874769  0.27344867  0.74999829  1 0.82468
  Cu  Cu14  1  0.00344657  0.79237109  0.25000632  1 0.834115
  Cu  Cu15  1  0.86111503  0.72650249  0.25001752  1 0.801898
  H  H16  1  0.91477734  0.61068489  0.86677549  1 0.134718
  H  H17  1  0.69842934  0.61077395  0.99575395  1 0.138199
  H  H18  1  0.66460436  0.72523960  0.87891838  1 0.129101
  H  H19  1  0.59049865  0.76414050  0.94613646  1 0.080824
  H  H20  1  0.48185637  0.72529226  0.92169384  1 0.081766
  H  H21  1  0.43686952  0.67172579  0.02596112  1 0.081729
  H  H22  1  0.33088549  0.69555451  0.98532788  1 0.08449
  H  H23  1  0.24969288  0.63014174  0.02297325  1 0.130243
  H  H24  1  0.98879675  0.62171432  0.13238097  1 0.13331
  H  H25  1  0.21291864  0.74853497  0.13526623  1 0.139998
  H  H26  1  0.08516748  0.38930515  0.36676924  1 0.134539
  H  H27  1  0.30149144  0.38924792  0.49572368  1 0.13839
  H  H28  1  0.33537145  0.27476304  0.37890706  1 0.128783
  H  H29  1  0.40953063  0.23586331  0.44615095  1 0.080427
  H  H30  1  0.51816352  0.27471705  0.42169297  1 0.082945
  H  H31  1  0.56315471  0.32829002  0.52596790  1 0.081425
  H  H32  1  0.66915452  0.30445235  0.48533114  1 0.084201
  H  H33  1  0.75028207  0.36985819  0.52295379  1 0.129505
  H  H34  1  0.01115771  0.37830704  0.63233753  1 0.132481
  H  H35  1  0.78705690  0.25146059  0.63524269  1 0.139574
  H  H36  1  0.08514082  0.11069027  0.63324538  1 0.134638
  H  H37  1  0.30152391  0.11075562  0.50427122  1 0.138836
  H  H38  1  0.33536709  0.22523066  0.62107715  1 0.129098
  H  H39  1  0.40950550  0.26413734  0.55385817  1 0.080639
  H  H40  1  0.51814734  0.22529190  0.57830266  1 0.081498
  H  H41  1  0.56312646  0.17172665  0.47403886  1 0.081308
  H  H42  1  0.66911929  0.19556358  0.51467032  1 0.084047
  H  H43  1  0.75024572  0.13015618  0.47705415  1 0.129371
  H  H44  1  0.01116300  0.12169153  0.36765358  1 0.132618
  H  H45  1  0.78710348  0.24851954  0.36475148  1 0.139798
  H  H46  1  0.91485562  0.88931229  0.13327337  1 0.134508
  H  H47  1  0.69850775  0.88926375  0.00428016  1 0.13921
  H  H48  1  0.66466373  0.77477669  0.12109086  1 0.129148
  H  H49  1  0.59047349  0.73587289  0.05384559  1 0.082761
  H  H50  1  0.48186141  0.77472727  0.07830067  1 0.082857
  H  H51  1  0.43686381  0.82829068  0.97403300  1 0.081866
  H  H52  1  0.33086575  0.80445232  0.01468285  1 0.084055
  H  H53  1  0.24980922  0.86984938  0.97706581  1 0.129797
  H  H54  1  0.98886605  0.87833086  0.86766642  1 0.132573
  H  H55  1  0.21289526  0.75149818  0.86476007  1 0.139277
  H  H56  1  0.08516438  0.38929152  0.13327284  1 0.134415
  H  H57  1  0.30145833  0.38924500  0.00428236  1 0.138963
  H  H58  1  0.33536897  0.27476439  0.12110902  1 0.128978
  H  H59  1  0.40947865  0.23586732  0.05387443  1 0.083048
  H  H60  1  0.51812816  0.27471995  0.07831576  1 0.081513
  H  H61  1  0.56312282  0.32827460  0.97404190  1 0.081437
  H  H62  1  0.66911384  0.30444097  0.01467197  1 0.08411
  H  H63  1  0.75020844  0.36983253  0.97705545  1 0.129493
  H  H64  1  0.01112880  0.37830650  0.86767608  1 0.132948
  H  H65  1  0.78704877  0.25146011  0.86474880  1 0.139832
  H  H66  1  0.91483216  0.61069706  0.63323208  1 0.13429
  H  H67  1  0.69851143  0.61074839  0.50427132  1 0.138497
  H  H68  1  0.66461201  0.72523823  0.62108523  1 0.128695
  H  H69  1  0.59048270  0.76413162  0.55384845  1 0.082722
  H  H70  1  0.48184964  0.72528041  0.57830238  1 0.081439
  H  H71  1  0.43685499  0.67171228  0.47402983  1 0.081728
  H  H72  1  0.33085600  0.69555170  0.51466741  1 0.084443
  H  H73  1  0.24972699  0.63014812  0.47704545  1 0.130032
  H  H74  1  0.98883961  0.62168688  0.36765944  1 0.133192
  H  H75  1  0.21293335  0.74853442  0.36475099  1 0.139429
  H  H76  1  0.91486046  0.88931025  0.36676181  1 0.134614
  H  H77  1  0.69848049  0.88924274  0.49573718  1 0.139321
  H  H78  1  0.66464593  0.77477163  0.37890964  1 0.129572
  H  H79  1  0.59050694  0.73586494  0.44613831  1 0.08074
  H  H80  1  0.48186744  0.77470857  0.42169435  1 0.082828
  H  H81  1  0.43689166  0.82827626  0.52596196  1 0.08159
  H  H82  1  0.33089107  0.80443755  0.48532549  1 0.083867
  H  H83  1  0.24974414  0.86984892  0.52294618  1 0.129372
  H  H84  1  0.98882029  0.87831474  0.63234939  1 0.13268
  H  H85  1  0.21291484  0.75148523  0.63524453  1 0.139434
  H  H86  1  0.08516417  0.11067254  0.86675425  1 0.134518
  H  H87  1  0.30155927  0.11075068  0.99573387  1 0.138769
  H  H88  1  0.33533289  0.22522443  0.87891902  1 0.128699
  H  H89  1  0.40952625  0.26413508  0.94615457  1 0.082709
  H  H90  1  0.51815049  0.22527997  0.92170988  1 0.082907
  H  H91  1  0.56313296  0.17170965  0.02597108  1 0.081713
  H  H92  1  0.66911129  0.19555427  0.98532071  1 0.084197
  H  H93  1  0.75024864  0.13013903  0.02295064  1 0.129437
  H  H94  1  0.01116531  0.12169145  0.13236554  1 0.132593
  H  H95  1  0.78710782  0.24850651  0.13524053  1 0.13953
  C  C96  1  0.79137400  0.66940068  0.86800298  1 -0.001906
  C  C97  1  0.84536426  0.62670490  0.88697368  1 -0.122138
  C  C98  1  0.81159458  0.60573924  0.93305508  1 -0.006635
  C  C99  1  0.72388141  0.62675099  0.95957950  1 -0.190322
  C  C100  1  0.67070833  0.66987016  0.94046017  1 0.256336
  C  C101  1  0.70338180  0.69139384  0.89442103  1 -0.22369
  C  C102  1  0.83561147  0.69383876  0.82114546  1 0.58315
  C  C103  1  0.87617664  0.56350765  0.95618291  1 0.585635
  C  C104  1  0.53219548  0.73346848  0.95530048  1 -0.023923
  C  C105  1  0.38720863  0.70531641  0.01646344  1 -0.027165
  C  C106  1  0.24223760  0.69267405  0.07710600  1 0.257504
  C  C107  1  0.20858627  0.64682441  0.05550653  1 -0.221359
  C  C108  1  0.11696111  0.62161693  0.07577157  1 -0.002766
  C  C109  1  0.06028319  0.64127234  0.11735313  1 -0.122797
  C  C110  1  0.09588146  0.68716009  0.13868951  1 -0.006129
  C  C111  1  0.18647472  0.71261756  0.11884520  1 -0.189164
  C  C112  1  0.07687294  0.57456575  0.04997010  1 0.582253
  C  C113  1  0.03563564  0.71172964  0.18143657  1 0.58106
  C  C114  1  0.20859090  0.33060053  0.36800557  1 -0.001936
  C  C115  1  0.15458853  0.37329572  0.38697701  1 -0.121815
  C  C116  1  0.18834884  0.39428254  0.43304880  1 -0.009019
  C  C117  1  0.27607931  0.37325550  0.45955166  1 -0.189966
  C  C118  1  0.32926032  0.33013129  0.44043786  1 0.255418
  C  C119  1  0.29659051  0.30860218  0.39440904  1 -0.224322
  C  C120  1  0.16441894  0.30614861  0.32115265  1 0.582265
  C  C121  1  0.12390268  0.43651836  0.45625847  1 0.586112
  C  C122  1  0.46781043  0.26655075  0.45529933  1 -0.025176
  C  C123  1  0.61280836  0.29470072  0.51645867  1 -0.026916
  C  C124  1  0.75777624  0.30733572  0.57709032  1 0.256587
  C  C125  1  0.79143771  0.35319202  0.55548816  1 -0.221394
  C  C126  1  0.88303834  0.37841060  0.57574540  1 -0.005884
  C  C127  1  0.93967966  0.35873770  0.61733363  1 -0.122964
  C  C128  1  0.90409944  0.31283868  0.63867109  1 -0.007835
  C  C129  1  0.81350506  0.28737650  0.61882711  1 -0.189202
  C  C130  1  0.92328413  0.42546819  0.54999573  1 0.583949
  C  C131  1  0.96432650  0.28825251  0.68142418  1 0.582997
  C  C132  1  0.20856225  0.16939270  0.63200030  1 -0.001693
  C  C133  1  0.15457258  0.12668749  0.61302473  1 -0.122086
  C  C134  1  0.18834101  0.10571215  0.56694603  1 -0.006213
  C  C135  1  0.27607079  0.12674543  0.54043841  1 -0.189922
  C  C136  1  0.32925584  0.16986409  0.55955926  1 0.255863
  C  C137  1  0.29659351  0.19138574  0.60559504  1 -0.223955
  C  C138  1  0.16433365  0.19382732  0.67886417  1 0.58306
  C  C139  1  0.12388253  0.06348150  0.54374045  1 0.58484
  C  C140  1  0.46778591  0.23345995  0.54470092  1 -0.024034
  C  C141  1  0.61279685  0.20531358  0.48353862  1 -0.026842
  C  C142  1  0.75778412  0.19265846  0.42290586  1 0.256665
  C  C143  1  0.79142959  0.14680696  0.44451349  1 -0.222285
  C  C144  1  0.88303554  0.12158745  0.42425318  1 -0.003725
  C  C145  1  0.93968488  0.14126117  0.38266561  1 -0.123427
  C  C146  1  0.90410806  0.18714541  0.36132922  1 -0.006389
  C  C147  1  0.81353069  0.21260847  0.38116810  1 -0.188387
  C  C148  1  0.92327827  0.07453812  0.45000736  1 0.583189
  C  C149  1  0.96438627  0.21169517  0.31858349  1 0.582715
  C  C150  1  0.79143914  0.83062899  0.13200299  1 -0.001267
  C  C151  1  0.84542152  0.87333933  0.11303709  1 -0.122192
  C  C152  1  0.81166877  0.89431395  0.06695447  1 -0.005702
  C  C153  1  0.72393008  0.87328068  0.04044950  1 -0.18905
  C  C154  1  0.67077207  0.83014467  0.05956293  1 0.255639
  C  C155  1  0.70345694  0.80861881  0.10559203  1 -0.22426
  C  C156  1  0.83564235  0.80617477  0.17885238  1 0.581671
  C  C157  1  0.87608531  0.93653201  0.04366849  1 0.585415
  C  C158  1  0.53220775  0.76655825  0.04469766  1 -0.026885
  C  C159  1  0.38718555  0.79470647  0.98354736  1 -0.027325
  C  C160  1  0.24222023  0.80737111  0.92291880  1 0.256664
  C  C161  1  0.20859911  0.85322962  0.94452264  1 -0.22301
  C  C162  1  0.11697773  0.87843986  0.92426724  1 -0.003532
  C  C163  1  0.06034069  0.85876657  0.88267221  1 -0.123485
  C  C164  1  0.09590654  0.81286955  0.86134227  1 -0.006955
  C  C165  1  0.18647211  0.78740837  0.88118523  1 -0.189377
  C  C166  1  0.07656812  0.92549265  0.94999244  1 0.583607
  C  C167  1  0.03562768  0.78830203  0.81859655  1 0.583247
  C  C168  1  0.20856600  0.33059975  0.13200595  1 -0.001304
  C  C169  1  0.15456988  0.37329328  0.11303826  1 -0.121861
  C  C170  1  0.18836597  0.39426132  0.06697157  1 -0.006536
  C  C171  1  0.27607243  0.37323570  0.04044759  1 -0.190967
  C  C172  1  0.32925305  0.33011489  0.05956021  1 0.255705
  C  C173  1  0.29656890  0.30860181  0.10559935  1 -0.223172
  C  C174  1  0.16440639  0.30614236  0.17886800  1 0.582028
  C  C175  1  0.12406897  0.43651165  0.04370518  1 0.585558
  C  C176  1  0.46779492  0.26653152  0.04470916  1 -0.025773
  C  C177  1  0.61277160  0.29468241  0.98354553  1 -0.026743
  C  C178  1  0.75775261  0.30732565  0.92291662  1 0.257169
  C  C179  1  0.79140687  0.35317481  0.94452350  1 -0.222079
  C  C180  1  0.88299701  0.37837874  0.92425213  1 -0.003514
  C  C181  1  0.93967243  0.35872352  0.88266682  1 -0.123028
  C  C182  1  0.90409655  0.31282960  0.86132757  1 -0.007319
  C  C183  1  0.81349056  0.28737473  0.88117467  1 -0.188155
  C  C184  1  0.92335623  0.42545380  0.94992727  1 0.583686
  C  C185  1  0.96435919  0.28825477  0.81856680  1 0.583175
  C  C186  1  0.79140702  0.66940194  0.63199624  1 -0.002264
  C  C187  1  0.84540747  0.62670674  0.61302144  1 -0.121679
  C  C188  1  0.81165380  0.60571838  0.56694805  1 -0.008622
  C  C189  1  0.72392183  0.62674271  0.54044053  1 -0.190119
  C  C190  1  0.67074519  0.66986705  0.55955661  1 0.255517
  C  C191  1  0.70340467  0.69139938  0.60558893  1 -0.224385
  C  C192  1  0.83560073  0.69384415  0.67885150  1 0.582435
  C  C193  1  0.87610072  0.56348218  0.54373809  1 0.586003
  C  C194  1  0.53219991  0.73344632  0.54469702  1 -0.025569
  C  C195  1  0.38719577  0.70529994  0.48353682  1 -0.02717
  C  C196  1  0.24222769  0.69266165  0.42290765  1 0.257081
  C  C197  1  0.20857553  0.64680795  0.44451028  1 -0.220952
  C  C198  1  0.11696913  0.62158586  0.42425235  1 -0.00492
  C  C199  1  0.06032049  0.64126320  0.38266383  1 -0.122336
  C  C200  1  0.09590598  0.68715785  0.36132763  1 -0.006954
  C  C201  1  0.18648741  0.71261798  0.38117102  1 -0.189621
  C  C202  1  0.07672855  0.57453320  0.44999825  1 0.583531
  C  C203  1  0.03566477  0.71172400  0.31858721  1 0.581238
  C  C204  1  0.79143373  0.83060781  0.36799836  1 -0.000569
  C  C205  1  0.84542553  0.87330317  0.38697879  1 -0.122607
  C  C206  1  0.81165830  0.89428865  0.43305078  1 -0.0055
  C  C207  1  0.72391578  0.87326138  0.45956381  1 -0.189061
  C  C208  1  0.67074644  0.83013554  0.44044409  1 0.256208
  C  C209  1  0.70342144  0.80861195  0.39441164  1 -0.223753
  C  C210  1  0.83563649  0.80617832  0.32114920  1 0.581027
  C  C211  1  0.87611046  0.93651559  0.45625847  1 0.585296
  C  C212  1  0.53222151  0.76654011  0.45529940  1 -0.025112
  C  C213  1  0.38720774  0.79468986  0.51646272  1 -0.027104
  C  C214  1  0.24221478  0.80734521  0.57709238  1 0.256822
  C  C215  1  0.20856581  0.85319549  0.55548578  1 -0.222506
  C  C216  1  0.11697124  0.87841418  0.57574414  1 -0.003401
  C  C217  1  0.06030261  0.85874459  0.61733841  1 -0.123151
  C  C218  1  0.09588397  0.81285544  0.63867709  1 -0.006829
  C  C219  1  0.18646315  0.78739461  0.61883435  1 -0.188551
  C  C220  1  0.07672692  0.92546718  0.54999244  1 0.583338
  C  C221  1  0.03562769  0.78829285  0.68142339  1 0.583004
  C  C222  1  0.20857223  0.16937359  0.86800931  1 -0.002437
  C  C223  1  0.15461895  0.12664648  0.88697012  1 -0.12234
  C  C224  1  0.18835529  0.10568424  0.93305909  1 -0.006462
  C  C225  1  0.27609589  0.12671624  0.95956313  1 -0.189621
  C  C226  1  0.32924280  0.16984867  0.94044456  1 0.255644
  C  C227  1  0.29656848  0.19138101  0.89441722  1 -0.224469
  C  C228  1  0.16432157  0.19382297  0.82114778  1 0.583471
  C  C229  1  0.12376891  0.06348332  0.95626887  1 0.585841
  C  C230  1  0.46778427  0.23344506  0.95530791  1 -0.026936
  C  C231  1  0.61280407  0.20529634  0.01646094  1 -0.027038
  C  C232  1  0.75778738  0.19263450  0.07709413  1 0.256609
  C  C233  1  0.79141922  0.14677295  0.05549872  1 -0.222774
  C  C234  1  0.88305412  0.12156060  0.07574885  1 -0.003582
  C  C235  1  0.93968071  0.14123435  0.11734115  1 -0.123406
  C  C236  1  0.90410649  0.18712957  0.13866204  1 -0.00683
  C  C237  1  0.81354663  0.21259456  0.11882410  1 -0.189225
  C  C238  1  0.92329567  0.07452428  0.04994519  1 0.58352
  C  C239  1  0.96439412  0.21169298  0.18140782  1 0.583216
  C  C240  1  0.45999565  0.75001571  -0.00000331  1 0.048793
  C  C241  1  0.54000119  0.25000652  0.50000005  1 0.049092
  C  C242  1  0.53998785  0.24998563  0.00001270  1 0.048822
  C  C243  1  0.46000158  0.74999429  0.49999761  1 0.049033
  O  O244  1  0.92126151  0.67292752  0.80251723  1 -0.513695
  O  O245  1  0.78828570  0.73387531  0.80451267  1 -0.51963
  O  O246  1  0.96748327  0.55273009  0.93503110  1 -0.514749
  O  O247  1  0.83680459  0.54298428  0.99614905  1 -0.514311
  O  O248  1  0.58960182  0.68863962  0.97084620  1 -0.207437
  O  O249  1  0.32707273  0.72186820  0.05997904  1 -0.207099
  O  O250  1  0.12652768  0.56159750  0.00929029  1 -0.52007
  O  O251  1  0.99474507  0.55188588  0.06983238  1 -0.508079
  O  O252  1  0.94722272  0.69096440  0.19700989  1 -0.505527
  O  O253  1  0.07813023  0.75293128  0.19818062  1 -0.511006
  O  O254  1  0.07873633  0.32705668  0.30250736  1 -0.514234
  O  O255  1  0.21175092  0.26612576  0.30451227  1 -0.519509
  O  O256  1  0.03254258  0.44731903  0.43511348  1 -0.516108
  O  O257  1  0.16326690  0.45699686  0.49621174  1 -0.515252
  O  O258  1  0.41038076  0.31137529  0.47082984  1 -0.207014
  O  O259  1  0.67293143  0.27814732  0.55996741  1 -0.207408
  O  O260  1  0.87361995  0.43844904  0.50929903  1 -0.521973
  O  O261  1  0.00538752  0.44811370  0.56984805  1 -0.509614
  O  O262  1  0.05273767  0.30900870  0.69700055  1 -0.509358
  O  O263  1  0.92181368  0.24707619  0.69816735  1 -0.519451
  O  O264  1  0.07872719  0.17290924  0.69749081  1 -0.513638
  O  O265  1  0.21167141  0.23385215  0.69551054  1 -0.519115
  O  O266  1  0.03252975  0.05270085  0.56491368  1 -0.51469
  O  O267  1  0.16325135  0.04300652  0.50378631  1 -0.513967
  O  O268  1  0.41037571  0.18863370  0.52916862  1 -0.206632
  O  O269  1  0.67294799  0.22184997  0.44002543  1 -0.207031
  O  O270  1  0.87359797  0.06156608  0.49071401  1 -0.52104
  O  O271  1  0.00538995  0.05189658  0.43015567  1 -0.508868
  O  O272  1  0.05277051  0.19094028  0.30301049  1 -0.509788
  O  O273  1  0.92188966  0.25290415  0.30182375  1 -0.520197
  O  O274  1  0.92130591  0.82707803  0.19748110  1 -0.505625
  O  O275  1  0.78827857  0.76613985  0.19548325  1 -0.515736
  O  O276  1  0.96747107  0.94729050  0.06480914  1 -0.516828
  O  O277  1  0.83669678  0.95698688  0.00375872  1 -0.515273
  O  O278  1  0.58966499  0.81137809  0.02916695  1 -0.206471
  O  O279  1  0.32703560  0.77816816  0.94004146  1 -0.207412
  O  O280  1  0.12623150  0.93846309  0.99068471  1 -0.522522
  O  O281  1  0.99453390  0.94808726  0.93013216  1 -0.510177
  O  O282  1  0.94722854  0.80906833  0.80304211  1 -0.509764
  O  O283  1  0.07811513  0.74710784  0.80184451  1 -0.520036
  O  O284  1  0.07873145  0.32705231  0.19751475  1 -0.513879
  O  O285  1  0.21174594  0.26611976  0.19549700  1 -0.519096
  O  O286  1  0.03260531  0.44729177  0.06483766  1 -0.514253
  O  O287  1  0.16346676  0.45700484  0.00378920  1 -0.514468
  O  O288  1  0.41036574  0.31136195  0.02917260  1 -0.20712
  O  O289  1  0.67290830  0.27813634  0.94003480  1 -0.207265
  O  O290  1  0.87367168  0.43845038  0.99064498  1 -0.520625
  O  O291  1  0.00541279  0.44808270  0.93006394  1 -0.508516
  O  O292  1  0.05275525  0.30902117  0.80299891  1 -0.509489
  O  O293  1  0.92184776  0.24708035  0.80183773  1 -0.519302
  O  O294  1  0.92125933  0.67294316  0.69749558  1 -0.51355
  O  O295  1  0.78825985  0.73387573  0.69549716  1 -0.519559
  O  O296  1  0.96745407  0.55268322  0.56488180  1 -0.516094
  O  O297  1  0.83673816  0.54300186  0.50378457  1 -0.515431
  O  O298  1  0.58962525  0.68862558  0.52916264  1 -0.2074
  O  O299  1  0.32707565  0.72185277  0.44002600  1 -0.207576
  O  O300  1  0.12637724  0.56154416  0.49069809  1 -0.521888
  O  O301  1  0.99462374  0.55188659  0.43014726  1 -0.509785
  O  O302  1  0.94724406  0.69095795  0.30302233  1 -0.505614
  O  O303  1  0.07814792  0.75292484  0.30182239  1 -0.51135
  O  O304  1  0.92128320  0.82708707  0.30250096  1 -0.505343
  O  O305  1  0.78828676  0.76613901  0.30451351  1 -0.51528
  O  O306  1  0.96747432  0.94731796  0.43511910  1 -0.515339
  O  O307  1  0.83669985  0.95697910  0.49622036  1 -0.514484
  O  O308  1  0.58962823  0.81136582  0.47083287  1 -0.206453
  O  O309  1  0.32705665  0.77815606  0.55997493  1 -0.207049
  O  O310  1  0.12637465  0.93846048  0.50929582  1 -0.521426
  O  O311  1  0.99460196  0.94808883  0.56986254  1 -0.509018
  O  O312  1  0.94723006  0.80905300  0.69699945  1 -0.509707
  O  O313  1  0.07810322  0.74709291  0.69817998  1 -0.519699
  O  O314  1  0.07870540  0.17290399  0.80254404  1 -0.513778
  O  O315  1  0.21167188  0.23384496  0.80450732  1 -0.5195
  O  O316  1  0.03249361  0.05271505  0.93512800  1 -0.515844
  O  O317  1  0.16319655  0.04301514  0.99621396  1 -0.515891
  O  O318  1  0.41034012  0.18862570  0.97084482  1 -0.207205
  O  O319  1  0.67297145  0.22183635  0.05996777  1 -0.207394
  O  O320  1  0.87366951  0.06155035  0.00928656  1 -0.521777
  O  O321  1  0.00540083  0.05191393  0.06982309  1 -0.510507
  O  O322  1  0.05277226  0.19093212  0.19696665  1 -0.510016
  O  O323  1  0.92188957  0.25289989  0.19816091  1 -0.520331
