# generated using pymatgen
data_LaH12C24(NO)6
_symmetry_space_group_name_H-M   'P 1'
_cell_length_a   4.44437217
_cell_length_b   18.94984377
_cell_length_c   29.87741970
_cell_angle_alpha   90.00011342
_cell_angle_beta   82.67332914
_cell_angle_gamma   90.00029979
_symmetry_Int_Tables_number   1
_chemical_formula_structural   LaH12C24(NO)6
_chemical_formula_sum   'La4 H48 C96 N24 O24'
_cell_volume   2495.73605514
_cell_formula_units_Z   4
loop_
 _symmetry_equiv_pos_site_id
 _symmetry_equiv_pos_as_xyz
  1  'x, y, z'
loop_
 _atom_site_type_symbol
 _atom_site_label
 _atom_site_symmetry_multiplicity
 _atom_site_fract_x
 _atom_site_fract_y
 _atom_site_fract_z
 _atom_site_occupancy
 _atom_site_charge
  La  La0  1  0.80604042  0.89353636  0.51775942  1 1.874223
  La  La1  1  0.19395167  0.39353324  0.98224290  1 1.874295
  La  La2  1  0.19395580  0.10646444  0.48224153  1 1.874346
  La  La3  1  0.80604238  0.60646389  0.01775658  1 1.874307
  H  H4  1  0.71512366  0.67945809  0.49895967  1 0.11892
  H  H5  1  0.47207895  0.50773352  0.41609058  1 0.111932
  H  H6  1  0.06758498  0.58264504  0.39106714  1 0.107932
  H  H7  1  0.98877100  0.70496882  0.41838003  1 0.112554
  H  H8  1  0.84857294  0.81770050  0.66975907  1 0.121134
  H  H9  1  0.38835146  0.89530828  0.76884812  1 0.107027
  H  H10  1  0.72003649  0.95954840  0.70756075  1 0.105029
  H  H11  1  0.61447417  0.94931366  0.62812362  1 0.093914
  H  H12  1  0.61589734  0.67117932  0.88696678  1 0.125968
  H  H13  1  0.06972191  0.66143443  0.77818761  1 0.100502
  H  H14  1  0.76443725  0.56347951  0.81774266  1 0.0998
  H  H15  1  0.89227027  0.52222547  0.89308157  1 0.109885
  H  H16  1  0.28487907  0.17945721  0.00104199  1 0.118923
  H  H17  1  0.52791911  0.00773067  0.08390823  1 0.112099
  H  H18  1  0.93241361  0.08264153  0.10893157  1 0.107896
  H  H19  1  0.01123509  0.20496520  0.08162117  1 0.112621
  H  H20  1  0.15143300  0.31770037  0.83024205  1 0.121175
  H  H21  1  0.61165199  0.39531034  0.73115437  1 0.107076
  H  H22  1  0.27997077  0.45954823  0.79244329  1 0.104975
  H  H23  1  0.38553110  0.44931063  0.87188024  1 0.093875
  H  H24  1  0.38410530  0.17118284  0.61303398  1 0.126013
  H  H25  1  0.93029302  0.16143601  0.72181141  1 0.100517
  H  H26  1  0.23555943  0.06348020  0.68225539  1 0.099791
  H  H27  1  0.10771954  0.02222752  0.60691728  1 0.109892
  H  H28  1  0.28487520  0.32054079  0.50104257  1 0.118893
  H  H29  1  0.52793002  0.49226735  0.58390937  1 0.111969
  H  H30  1  0.93242180  0.41735518  0.60893315  1 0.107948
  H  H31  1  0.01123324  0.29503101  0.58162164  1 0.112584
  H  H32  1  0.15143191  0.18229949  0.33024080  1 0.121094
  H  H33  1  0.61163924  0.10469152  0.23115396  1 0.107033
  H  H34  1  0.27996293  0.04045134  0.29244216  1 0.105066
  H  H35  1  0.38554057  0.05068547  0.37187860  1 0.093941
  H  H36  1  0.38410683  0.32881805  0.11303252  1 0.125998
  H  H37  1  0.93028197  0.33856420  0.22181156  1 0.100521
  H  H38  1  0.23556519  0.43651841  0.18225588  1 0.09982
  H  H39  1  0.10772618  0.47777305  0.10691759  1 0.109905
  H  H40  1  0.71511679  0.82053962  0.99895596  1 0.118977
  H  H41  1  0.47206450  0.99226715  0.91609050  1 0.111881
  H  H42  1  0.06757097  0.91735522  0.89106667  1 0.107913
  H  H43  1  0.98875854  0.79503082  0.91837705  1 0.112628
  H  H44  1  0.84857064  0.68230162  0.16975664  1 0.121199
  H  H45  1  0.38834988  0.60469388  0.26884509  1 0.107089
  H  H46  1  0.72003041  0.54045462  0.20755709  1 0.104969
  H  H47  1  0.61446305  0.55068932  0.12812004  1 0.093882
  H  H48  1  0.61589096  0.82881913  0.38696657  1 0.125992
  H  H49  1  0.06972048  0.83856827  0.27818766  1 0.100512
  H  H50  1  0.76443896  0.93652076  0.31774463  1 0.099844
  H  H51  1  0.89227137  0.97777299  0.39308385  1 0.109842
  C  C52  1  0.30052861  0.77226374  0.47907474  1 0.619589
  C  C53  1  0.35458345  0.70087534  0.45966944  1 -0.087021
  C  C54  1  0.57480538  0.65839740  0.47483976  1 -0.062127
  C  C55  1  0.61919371  0.58827737  0.45977189  1 0.011661
  C  C56  1  0.44303371  0.56213026  0.42755999  1 -0.141908
  C  C57  1  0.22277164  0.60475535  0.41277214  1 -0.0681
  C  C58  1  0.17262295  0.67357642  0.42888522  1 -0.049956
  C  C59  1  0.82265439  0.54210592  0.48114679  1 0.223367
  C  C60  1  0.14427836  0.88070211  0.59797933  1 0.596678
  C  C61  1  0.22099100  0.88526309  0.64447159  1 -0.061948
  C  C62  1  0.02896566  0.85142899  0.67855610  1 -0.085663
  C  C63  1  0.09953601  0.85192740  0.72350469  1 -1.6e-05
  C  C64  1  0.35198003  0.88936363  0.73369125  1 -0.078913
  C  C65  1  0.54298034  0.92434904  0.69906215  1 -0.084703
  C  C66  1  0.47117266  0.92260597  0.65496566  1 -0.057366
  C  C67  1  0.89572453  0.81330212  0.75622231  1 0.211275
  C  C68  1  0.53816146  0.72740593  0.80547020  1 0.229515
  C  C69  1  0.34901570  0.56305163  0.93547101  1 0.603037
  C  C70  1  0.27509785  0.58935562  0.89165300  1 -0.060465
  C  C71  1  0.45056773  0.64383799  0.86961443  1 -0.078288
  C  C72  1  0.36134884  0.67169187  0.82952669  1 0.004457
  C  C73  1  0.11470856  0.64350913  0.81123789  1 -0.112454
  C  C74  1  0.93361560  0.59086117  0.83443718  1 -0.072662
  C  C75  1  0.02335296  0.56323808  0.87425383  1 -0.062841
  C  C76  1  0.69948223  0.27226184  0.02092881  1 0.619735
  C  C77  1  0.64542019  0.20087280  0.04033213  1 -0.086986
  C  C78  1  0.42520130  0.15839648  0.02516120  1 -0.062135
  C  C79  1  0.38080572  0.08827579  0.04022805  1 0.011705
  C  C80  1  0.55696332  0.06212742  0.07243909  1 -0.142248
  C  C81  1  0.77722965  0.10475212  0.08722783  1 -0.067933
  C  C82  1  0.82738022  0.17357451  0.07111593  1 -0.050179
  C  C83  1  0.17734603  0.04210461  0.01885332  1 0.223354
  C  C84  1  0.85570143  0.38070109  0.90202256  1 0.596556
  C  C85  1  0.77901181  0.38526086  0.85553067  1 -0.061807
  C  C86  1  0.97104007  0.35142790  0.82144485  1 -0.085678
  C  C87  1  0.90046929  0.35192831  0.77649658  1 -0.000126
  C  C88  1  0.64802845  0.38936418  0.76631062  1 -0.078877
  C  C89  1  0.45702230  0.42434913  0.80094083  1 -0.084616
  C  C90  1  0.52883323  0.42260322  0.84503692  1 -0.057505
  C  C91  1  0.10428613  0.31330422  0.74377873  1 0.21161
  C  C92  1  0.46185189  0.22740949  0.69453004  1 0.227591
  C  C93  1  0.65096603  0.06305809  0.56452908  1 0.603171
  C  C94  1  0.72489861  0.08936009  0.60834611  1 -0.06049
  C  C95  1  0.54943546  0.14384125  0.63038589  1 -0.078284
  C  C96  1  0.63865844  0.17169388  0.67047322  1 0.005004
  C  C97  1  0.88529990  0.14351067  0.68876134  1 -0.112499
  C  C98  1  0.06638210  0.09086246  0.66556126  1 -0.07262
  C  C99  1  0.97664375  0.06324022  0.62574472  1 -0.062843
  C  C100  1  0.69948229  0.22773556  0.52092777  1 0.619684
  C  C101  1  0.64542020  0.29912473  0.54033234  1 -0.086947
  C  C102  1  0.42519929  0.34160206  0.52516186  1 -0.062078
  C  C103  1  0.38081155  0.41172211  0.54022910  1 0.011736
  C  C104  1  0.55697368  0.43787056  0.57244024  1 -0.141986
  C  C105  1  0.77723363  0.39524543  0.58722874  1 -0.068096
  C  C106  1  0.82737856  0.32642260  0.57111688  1 -0.050097
  C  C107  1  0.17734562  0.45789300  0.51885445  1 0.223173
  C  C108  1  0.85573028  0.11929875  0.40202115  1 0.596664
  C  C109  1  0.77901577  0.11473774  0.35552923  1 -0.061841
  C  C110  1  0.97103848  0.14857118  0.32144419  1 -0.085579
  C  C111  1  0.90046092  0.14807286  0.27649600  1 -0.000144
  C  C112  1  0.64801412  0.11063645  0.26631054  1 -0.078827
  C  C113  1  0.45701848  0.07565122  0.30094007  1 -0.084715
  C  C114  1  0.52883441  0.07739419  0.34503603  1 -0.057559
  C  C115  1  0.10427329  0.18669752  0.24377843  1 0.211424
  C  C116  1  0.46184031  0.27259359  0.19452965  1 0.229601
  C  C117  1  0.65098025  0.43694701  0.06452824  1 0.60296
  C  C118  1  0.72490398  0.41064238  0.10834602  1 -0.060539
  C  C119  1  0.54943378  0.35615947  0.13038466  1 -0.078213
  C  C120  1  0.63865205  0.32830592  0.17047283  1 0.004469
  C  C121  1  0.88529211  0.35648940  0.18876137  1 -0.112529
  C  C122  1  0.06638431  0.40913656  0.16556196  1 -0.072739
  C  C123  1  0.97664534  0.43675956  0.12574523  1 -0.062813
  C  C124  1  0.30050626  0.72773443  0.97906959  1 0.619618
  C  C125  1  0.35457294  0.79912375  0.95966596  1 -0.087029
  C  C126  1  0.57479353  0.84160098  0.97483660  1 -0.062233
  C  C127  1  0.61918584  0.91172108  0.95977028  1 0.011848
  C  C128  1  0.44302291  0.93787038  0.92755932  1 -0.141864
  C  C129  1  0.22275775  0.89524574  0.91277057  1 -0.068049
  C  C130  1  0.17261205  0.82642167  0.92888239  1 -0.050158
  C  C131  1  0.82264866  0.95789219  0.98114526  1 0.223095
  C  C132  1  0.14428239  0.61929798  0.09797739  1 0.596631
  C  C133  1  0.22098505  0.61473969  0.14446893  1 -0.061863
  C  C134  1  0.02896136  0.64857410  0.17855438  1 -0.085683
  C  C135  1  0.09953588  0.64807538  0.22350240  1 6.8e-05
  C  C136  1  0.35197703  0.61063963  0.23368884  1 -0.079003
  C  C137  1  0.54298126  0.57565359  0.19905887  1 -0.084565
  C  C138  1  0.47116468  0.57739724  0.15496271  1 -0.057542
  C  C139  1  0.89572005  0.68669998  0.25622035  1 0.211296
  C  C140  1  0.53815939  0.77259568  0.30546932  1 0.229441
  C  C141  1  0.34902802  0.93694463  0.43547263  1 0.602916
  C  C142  1  0.27509740  0.91064234  0.39165486  1 -0.060447
  C  C143  1  0.45056491  0.85616074  0.36961480  1 -0.078274
  C  C144  1  0.36134519  0.82830844  0.32952635  1 0.004373
  C  C145  1  0.11470936  0.85649289  0.31123823  1 -0.112374
  C  C146  1  0.93361921  0.90913908  0.33443857  1 -0.072778
  C  C147  1  0.02335198  0.93676075  0.37425617  1 -0.062817
  N  N148  1  0.82133407  0.47218041  0.47054051  1 -0.142045
  N  N149  1  0.99813263  0.57013815  0.51056719  1 -0.13228
  N  N150  1  0.65520080  0.78393688  0.73948905  1 -0.100476
  N  N151  1  0.45406313  0.74693937  0.76484440  1 -0.137492
  N  N152  1  0.75799537  0.76187256  0.82424449  1 -0.132052
  N  N153  1  0.91651806  0.81227663  0.80133789  1 -0.156262
  N  N154  1  0.17866237  0.97217844  0.02945893  1 -0.141933
  N  N155  1  0.00186952  0.07013789  0.98943267  1 -0.132178
  N  N156  1  0.34480990  0.28393768  0.76051145  1 -0.100586
  N  N157  1  0.54594846  0.24694269  0.73515601  1 -0.136872
  N  N158  1  0.24201857  0.26187657  0.67575661  1 -0.131359
  N  N159  1  0.08350495  0.31228123  0.69866293  1 -0.156481
  N  N160  1  0.17867790  0.52781921  0.52945953  1 -0.141888
  N  N161  1  0.00187370  0.42986133  0.48943350  1 -0.132094
  N  N162  1  0.34479626  0.21606291  0.26051102  1 -0.100533
  N  N163  1  0.54593809  0.25306013  0.23515525  1 -0.137525
  N  N164  1  0.24200705  0.23812632  0.17575572  1 -0.132068
  N  N165  1  0.08348238  0.18772215  0.19866277  1 -0.156331
  N  N166  1  0.82132164  0.02781859  0.97053961  1 -0.141946
  N  N167  1  0.99812234  0.92986021  0.01056590  1 -0.132197
  N  N168  1  0.65520010  0.71606571  0.23948733  1 -0.100535
  N  N169  1  0.45406062  0.75306328  0.26484334  1 -0.137392
  N  N170  1  0.75799312  0.73812913  0.32424282  1 -0.131919
  N  N171  1  0.91651346  0.68772488  0.30133582  1 -0.156462
  O  O172  1  0.46751593  0.79459946  0.50804441  1 -0.628914
  O  O173  1  0.08332799  0.80852692  0.46632536  1 -0.601684
  O  O174  1  0.30868610  0.91345393  0.56533313  1 -0.669641
  O  O175  1  0.90643909  0.84662851  0.59173654  1 -0.558393
  O  O176  1  0.58699465  0.58507446  0.94984022  1 -0.575174
  O  O177  1  0.16180646  0.51986529  0.95821215  1 -0.689714
  O  O178  1  0.53249824  0.29459834  0.99195869  1 -0.628949
  O  O179  1  0.91667921  0.30852426  0.03367982  1 -0.60169
  O  O180  1  0.69131281  0.41345003  0.93466753  1 -0.669507
  O  O181  1  0.09356794  0.34662204  0.90826738  1 -0.558436
  O  O182  1  0.41298694  0.08508183  0.55016101  1 -0.575159
  O  O183  1  0.83816486  0.01987156  0.54178510  1 -0.689786
  O  O184  1  0.53250093  0.20540153  0.49195703  1 -0.628945
  O  O185  1  0.91667730  0.19147409  0.53367863  1 -0.601773
  O  O186  1  0.69132374  0.08654792  0.43466716  1 -0.669684
  O  O187  1  0.09357231  0.15337240  0.40826359  1 -0.558418
  O  O188  1  0.41300081  0.41492272  0.05016036  1 -0.575164
  O  O189  1  0.83818967  0.48013371  0.04178711  1 -0.689633
  O  O190  1  0.46749100  0.70540030  0.00804094  1 -0.62887
  O  O191  1  0.08331354  0.69147213  0.96631903  1 -0.601683
  O  O192  1  0.30867778  0.58654856  0.06533222  1 -0.669654
  O  O193  1  0.90642312  0.65337564  0.09173318  1 -0.558351
  O  O194  1  0.58700689  0.91491997  0.44984007  1 -0.575029
  O  O195  1  0.16182032  0.98013063  0.45821526  1 -0.689633
