# generated using pymatgen
data_CoH3(C2O)4
_symmetry_space_group_name_H-M   'P 1'
_cell_length_a   12.94499140
_cell_length_b   14.33473903
_cell_length_c   18.06248282
_cell_angle_alpha   98.02360050
_cell_angle_beta   90.00058924
_cell_angle_gamma   89.99981606
_symmetry_Int_Tables_number   1
_chemical_formula_structural   CoH3(C2O)4
_chemical_formula_sum   'Co8 H24 C64 O32'
_cell_volume   3318.91859720
_cell_formula_units_Z   8
loop_
 _symmetry_equiv_pos_site_id
 _symmetry_equiv_pos_as_xyz
  1  'x, y, z'
loop_
 _atom_site_type_symbol
 _atom_site_label
 _atom_site_symmetry_multiplicity
 _atom_site_fract_x
 _atom_site_fract_y
 _atom_site_fract_z
 _atom_site_occupancy
 _atom_site_charge
  Co  Co0  1  0.07503501  0.00685497  0.76184393  1 0.891322
  Co  Co1  1  0.30865911  0.43163450  0.16591571  1 0.761473
  Co  Co2  1  0.57503999  0.49314898  0.73815367  1 0.891175
  Co  Co3  1  0.80865994  0.06835575  0.33408136  1 0.76137
  Co  Co4  1  0.92496477  -0.00685939  0.23815995  1 0.891323
  Co  Co5  1  0.69133585  0.56836287  0.83408229  1 0.761477
  Co  Co6  1  0.42496354  0.50685150  0.26184681  1 0.891235
  Co  Co7  1  0.19134984  0.93163867  0.66590492  1 0.76149
  H  H8  1  0.60875450  0.23646616  0.23131551  1 0.131955
  H  H9  1  0.55695066  0.30965220  0.01199501  1 0.116015
  H  H10  1  0.80134910  0.11520777  0.04984397  1 0.13032
  H  H11  1  0.82883538  0.09544402  0.93718218  1 0.121008
  H  H12  1  0.81971363  0.22309493  0.73641344  1 0.129492
  H  H13  1  0.63539820  0.33901177  0.92488373  1 0.117455
  H  H14  1  0.10875608  0.26352859  0.26868776  1 0.131969
  H  H15  1  0.05694354  0.19035170  0.48800987  1 0.115947
  H  H16  1  0.30134653  0.38478594  0.45015810  1 0.130297
  H  H17  1  0.32883568  0.40455263  0.56282126  1 0.121029
  H  H18  1  0.31970797  0.27690317  0.76358630  1 0.129426
  H  H19  1  0.13539109  0.16099045  0.57511697  1 0.11745
  H  H20  1  0.39125046  0.76352132  0.76868272  1 0.131921
  H  H21  1  0.44304131  0.69034073  0.98800581  1 0.115981
  H  H22  1  0.19865444  0.88479308  0.95014905  1 0.130332
  H  H23  1  0.17116336  0.90455362  0.06281688  1 0.121119
  H  H24  1  0.18028791  0.77689889  0.26358210  1 0.129484
  H  H25  1  0.36460528  0.66098497  0.07511531  1 0.117454
  H  H26  1  0.89124845  0.73648799  0.73131335  1 0.131993
  H  H27  1  0.94304129  0.80966762  0.51199549  1 0.115941
  H  H28  1  0.69865389  0.61521493  0.54984797  1 0.13035
  H  H29  1  0.67116096  0.59545214  0.43718205  1 0.121023
  H  H30  1  0.68028893  0.72308799  0.23641063  1 0.129424
  H  H31  1  0.86460352  0.83901290  0.42488137  1 0.117492
  C  C32  1  0.62854041  0.22850376  0.17222530  1 -0.093679
  C  C33  1  0.49458034  0.34676320  0.15459364  1 0.589173
  C  C34  1  0.57560976  0.27917473  0.12361654  1 -0.018728
  C  C35  1  0.60177455  0.26986427  0.04793466  1 -0.119735
  C  C36  1  0.72195083  0.21401224  0.94162563  1 0.061293
  C  C37  1  0.70689391  0.16686735  0.14364266  1 -0.03066
  C  C38  1  0.68585057  0.21365038  0.01960717  1 0.066752
  C  C39  1  0.73645176  0.16077563  0.06847200  1 -0.117384
  C  C40  1  0.79543029  0.14965240  0.90778556  1 -0.110062
  C  C41  1  0.91903038  0.09250523  0.80611148  1 0.548594
  C  C42  1  0.72107407  0.28710666  0.82701366  1 -0.032917
  C  C43  1  0.68287647  0.36439595  0.78815057  1 0.579963
  C  C44  1  0.79210977  0.22088504  0.79315449  1 -0.091378
  C  C45  1  0.68802489  0.28413091  0.90047780  1 -0.118966
  C  C46  1  0.83149027  0.15415563  0.83529266  1 -0.019057
  C  C47  1  0.76185746  0.11114318  0.19447864  1 0.584803
  C  C48  1  0.12854097  0.27149235  0.32777633  1 -0.093625
  C  C49  1  0.99458052  0.15324065  0.34541033  1 0.589329
  C  C50  1  0.07560849  0.22082640  0.37638691  1 -0.018872
  C  C51  1  0.10176798  0.23013522  0.45206818  1 -0.119669
  C  C52  1  0.22194362  0.28598272  0.55837675  1 0.061194
  C  C53  1  0.20689458  0.33312955  0.35635910  1 -0.030733
  C  C54  1  0.18584572  0.28634550  0.48039541  1 0.066929
  C  C55  1  0.23644606  0.33922073  0.43153150  1 -0.117393
  C  C56  1  0.29542643  0.35034593  0.59221681  1 -0.110051
  C  C57  1  0.41903569  0.40749804  0.69388764  1 0.548348
  C  C58  1  0.22106854  0.21289461  0.67298811  1 -0.032779
  C  C59  1  0.18286538  0.13561001  0.71187146  1 0.579787
  C  C60  1  0.29210749  0.27911727  0.70684726  1 -0.091406
  C  C61  1  0.18802004  0.21586939  0.59952655  1 -0.118966
  C  C62  1  0.33149089  0.34584400  0.66470942  1 -0.019082
  C  C63  1  0.26186066  0.38886163  0.30552471  1 0.584922
  C  C64  1  0.37146191  0.77148852  0.82777129  1 -0.093492
  C  C65  1  0.50541698  0.65323150  0.84540849  1 0.589273
  C  C66  1  0.42438589  0.72081695  0.87638363  1 -0.018976
  C  C67  1  0.39822341  0.73013036  0.95206478  1 -0.119554
  C  C68  1  0.27805121  0.78597943  0.05837238  1 0.061379
  C  C69  1  0.29310772  0.83312541  0.85635331  1 -0.030733
  C  C70  1  0.31414686  0.78634338  0.98039082  1 0.066766
  C  C71  1  0.26354810  0.83921770  0.93152389  1 -0.117381
  C  C72  1  0.20457051  0.85034487  0.09221147  1 -0.110369
  C  C73  1  0.08096983  0.90749595  0.19388514  1 0.548471
  C  C74  1  0.27892951  0.71289229  0.17298538  1 -0.033022
  C  C75  1  0.31713001  0.63560317  0.21186725  1 0.579843
  C  C76  1  0.20788879  0.77911431  0.20684314  1 -0.091457
  C  C77  1  0.31197585  0.71586581  0.09952338  1 -0.118908
  C  C78  1  0.16850868  0.84584219  0.16470381  1 -0.018969
  C  C79  1  0.23814971  0.88885347  0.80551485  1 0.584912
  C  C80  1  0.87145729  0.72852085  0.67222530  1 -0.093723
  C  C81  1  0.00542146  0.84676760  0.65458713  1 0.589272
  C  C82  1  0.92438613  0.77918876  0.62361501  1 -0.01871
  C  C83  1  0.89822064  0.76987718  0.54793468  1 -0.119628
  C  C84  1  0.77804860  0.71402289  0.44162461  1 0.06125
  C  C85  1  0.79310545  0.66687963  0.64364526  1 -0.030719
  C  C86  1  0.81414467  0.71366332  0.51960827  1 0.066912
  C  C87  1  0.76354681  0.66078776  0.56847414  1 -0.117446
  C  C88  1  0.70457162  0.64965905  0.40778543  1 -0.110179
  C  C89  1  0.58097002  0.59250061  0.30611365  1 0.548386
  C  C90  1  0.77892382  0.78710906  0.32700887  1 -0.033061
  C  C91  1  0.81712965  0.86439296  0.28814327  1 0.579979
  C  C92  1  0.70789284  0.72088092  0.29315214  1 -0.091344
  C  C93  1  0.81197476  0.78413769  0.40047424  1 -0.118897
  C  C94  1  0.66851270  0.65415388  0.33529035  1 -0.019014
  C  C95  1  0.73814224  0.61114774  0.69447832  1 0.584884
  O  O96  1  0.95475004  0.09653475  0.74036236  1 -0.515325
  O  O97  1  0.96326707  0.03920066  0.84760300  1 -0.490899
  O  O98  1  0.50925731  0.39218669  0.21893747  1 -0.512825
  O  O99  1  0.41337501  0.35568413  0.11415776  1 -0.507389
  O  O100  1  0.83609508  0.05836523  0.17023174  1 -0.494318
  O  O101  1  0.73053916  0.12078076  0.26370391  1 -0.524712
  O  O102  1  0.64921001  0.44083220  0.83244287  1 -0.566946
  O  O103  1  0.67675725  0.36203827  0.71909130  1 -0.464603
  O  O104  1  0.45477094  0.40346541  0.75963318  1 -0.515162
  O  O105  1  0.46325512  0.46080802  0.65239229  1 -0.490782
  O  O106  1  0.00926019  0.10781425  0.28106910  1 -0.51296
  O  O107  1  0.91337337  0.14432035  0.38584169  1 -0.507392
  O  O108  1  0.33609628  0.44163631  0.32978280  1 -0.494321
  O  O109  1  0.23054814  0.37922412  0.23629925  1 -0.524783
  O  O110  1  0.14919884  0.05917531  0.66756585  1 -0.567111
  O  O111  1  0.17674270  0.13798043  0.78090766  1 -0.464227
  O  O112  1  0.04524445  0.90346741  0.25963277  1 -0.515222
  O  O113  1  0.03674533  0.96080499  0.15239045  1 -0.490818
  O  O114  1  0.49074102  0.60780360  0.78106569  1 -0.512845
  O  O115  1  0.58662712  0.64431708  0.88583995  1 -0.507374
  O  O116  1  0.16391891  0.94163715  0.82976935  1 -0.494316
  O  O117  1  0.26945891  0.87921305  0.73628963  1 -0.524878
  O  O118  1  0.35079759  0.55917146  0.16756646  1 -0.56705
  O  O119  1  0.32324708  0.63797101  0.28090771  1 -0.46423
  O  O120  1  0.54523757  0.59653001  0.24036814  1 -0.515244
  O  O121  1  0.53674653  0.53919214  0.34760760  1 -0.490772
  O  O122  1  -0.00925047  0.89219379  0.71893224  1 -0.513004
  O  O123  1  0.08662369  0.85568285  0.61415173  1 -0.507367
  O  O124  1  0.66391212  0.55836456  0.67021879  1 -0.494291
  O  O125  1  0.76944986  0.62078774  0.76370649  1 -0.524766
  O  O126  1  0.85080103  0.94082359  0.33243792  1 -0.567067
  O  O127  1  0.82325012  0.86203057  0.21908477  1 -0.46443
