# generated using pymatgen
data_Zn2H9(C3O)8
_symmetry_space_group_name_H-M   'P 1'
_cell_length_a   12.19882682
_cell_length_b   15.19375295
_cell_length_c   26.50549206
_cell_angle_alpha   90.00007944
_cell_angle_beta   105.00435564
_cell_angle_gamma   90.00040027
_symmetry_Int_Tables_number   1
_chemical_formula_structural   Zn2H9(C3O)8
_chemical_formula_sum   'Zn8 H36 C96 O32'
_cell_volume   4745.19351133
_cell_formula_units_Z   4
loop_
 _symmetry_equiv_pos_site_id
 _symmetry_equiv_pos_as_xyz
  1  'x, y, z'
loop_
 _atom_site_type_symbol
 _atom_site_label
 _atom_site_symmetry_multiplicity
 _atom_site_fract_x
 _atom_site_fract_y
 _atom_site_fract_z
 _atom_site_occupancy
 _atom_site_charge
  Zn  Zn0  1  0.97856221  0.49702686  0.13875572  1 0.972841
  Zn  Zn1  1  0.16097678  0.37374007  0.20734330  1 0.931538
  Zn  Zn2  1  0.02144168  0.99702429  0.36124391  1 0.972854
  Zn  Zn3  1  0.83903029  0.87374063  0.29265607  1 0.931647
  Zn  Zn4  1  0.02144710  0.50297313  0.86124088  1 0.972863
  Zn  Zn5  1  0.83903337  0.62625944  0.79265557  1 0.931641
  Zn  Zn6  1  0.97855142  0.00297338  0.63875790  1 0.97286
  Zn  Zn7  1  0.16096374  0.12625881  0.70734436  1 0.931667
  H  H8  1  0.22685702  0.51424689  0.40572497  1 0.105662
  H  H9  1  0.23869227  0.37678460  0.45477308  1 0.106305
  H  H10  1  0.47767942  0.75824048  0.40686909  1 0.110696
  H  H11  1  0.29471038  0.22077150  0.44204651  1 0.119974
  H  H12  1  0.09396197  0.07626386  0.52561497  1 0.136541
  H  H13  1  0.33583664  0.26790429  0.60665162  1 0.120859
  H  H14  1  0.25651963  0.78448042  0.39469951  1 0.123549
  H  H15  1  0.04590418  0.69675563  0.24669250  1 0.131863
  H  H16  1  0.31969597  0.53371309  0.33129747  1 0.120494
  H  H17  1  0.77314242  0.01424932  0.09427569  1 0.105637
  H  H18  1  0.76130681  0.87678799  0.04522608  1 0.106323
  H  H19  1  0.52232324  0.25824284  0.09313100  1 0.110693
  H  H20  1  0.70528629  0.72077471  0.05795359  1 0.120006
  H  H21  1  0.90603548  0.57626904  0.97438527  1 0.13648
  H  H22  1  0.66415855  0.76790176  0.89334818  1 0.120825
  H  H23  1  0.74347866  0.28448138  0.10530202  1 0.123587
  H  H24  1  0.95409185  0.19676502  0.25331122  1 0.131918
  H  H25  1  0.68030755  0.03371212  0.16870403  1 0.120452
  H  H26  1  0.77313822  0.48575604  0.59427725  1 0.105637
  H  H27  1  0.76130260  0.62321578  0.54522741  1 0.106322
  H  H28  1  0.52231604  0.24176195  0.59313281  1 0.110692
  H  H29  1  0.70528902  0.77922821  0.55795386  1 0.120052
  H  H30  1  0.90603828  0.92373596  0.47438630  1 0.136426
  H  H31  1  0.66416121  0.73209665  0.39334928  1 0.120841
  H  H32  1  0.74347136  0.21551848  0.60529997  1 0.123563
  H  H33  1  0.95409213  0.30323671  0.75330820  1 0.131852
  H  H34  1  0.68030648  0.46628587  0.66870600  1 0.120464
  H  H35  1  0.22685715  0.98574883  0.90572605  1 0.105619
  H  H36  1  0.23869395  0.12321211  0.95477421  1 0.106308
  H  H37  1  0.47768027  0.74175941  0.90686668  1 0.110679
  H  H38  1  0.29471338  0.27922603  0.94204296  1 0.119997
  H  H39  1  0.09397241  0.42373760  0.02561058  1 0.13658
  H  H40  1  0.33583726  0.23209461  0.10664750  1 0.120749
  H  H41  1  0.25652646  0.71551554  0.89469584  1 0.12356
  H  H42  1  0.04591056  0.80323894  0.74668892  1 0.131858
  H  H43  1  0.31969737  0.96628869  0.83129786  1 0.120424
  C  C44  1  0.30482024  0.49788820  0.43499622  1 -0.127839
  C  C45  1  0.31142462  0.42102843  0.46230603  1 -0.126616
  C  C46  1  0.41174294  0.39752371  0.50140841  1 0.033801
  C  C47  1  0.49624590  0.54059334  0.48594973  1 0.006662
  C  C48  1  0.39740305  0.55883497  0.44457199  1 0.02939
  C  C49  1  0.39306686  0.63787060  0.41568192  1 0.025608
  C  C50  1  0.48218343  0.69790028  0.42964643  1 -0.181502
  C  C51  1  0.42046223  0.31782282  0.52991168  1 0.026324
  C  C52  1  0.32634422  0.25371185  0.52452521  1 0.070575
  C  C53  1  0.27138321  0.20894034  0.47851925  1 -0.118374
  C  C54  1  0.18742795  0.14572812  0.47889991  1 -0.020844
  C  C55  1  0.15805126  0.12607731  0.52533391  1 -0.087912
  C  C56  1  0.21278857  0.17029290  0.57118408  1 -0.034409
  C  C57  1  0.29511509  0.23386266  0.57050429  1 -0.128493
  C  C58  1  0.29899381  0.65632754  0.36916958  1 0.072227
  C  C59  1  0.23727143  0.73507324  0.36382983  1 -0.114444
  C  C60  1  0.14644503  0.74950016  0.31987702  1 -0.040663
  C  C61  1  0.11798749  0.68638063  0.28022798  1 -0.087384
  C  C62  1  0.18184527  0.60933487  0.28445002  1 -0.042672
  C  C63  1  0.27144322  0.59449943  0.32868954  1 -0.11673
  C  C64  1  0.15233238  0.54042928  0.24341698  1 0.614675
  C  C65  1  0.18784794  0.14926511  0.62129941  1 0.589717
  C  C66  1  0.07213633  0.82802841  0.31707810  1 0.611136
  C  C67  1  0.13068870  0.09600127  0.43043799  1 0.558121
  C  C68  1  0.69517674  -0.00211063  0.06500467  1 -0.127783
  C  C69  1  0.68857569  0.92102916  0.03769511  1 -0.126683
  C  C70  1  0.58825313  0.89752380  0.99859281  1 0.033747
  C  C71  1  0.50375167  0.04059193  0.01405157  1 0.006694
  C  C72  1  0.60259655  0.05883156  0.05542992  1 0.030039
  C  C73  1  0.60692923  0.13787230  0.08431971  1 0.023773
  C  C74  1  0.51781825  0.19790052  0.07035322  1 -0.180914
  C  C75  1  0.57953476  0.81782141  0.97008847  1 0.026405
  C  C76  1  0.67365338  0.75371354  0.97547596  1 0.070527
  C  C77  1  0.72861426  0.70894179  0.02148069  1 -0.118409
  C  C78  1  0.81256925  0.64573100  0.02110138  1 -0.020733
  C  C79  1  0.84194844  0.62607999  0.97466650  1 -0.08795
  C  C80  1  0.78720704  0.67029307  0.92881651  1 -0.034354
  C  C81  1  0.70488091  0.73386117  0.92949548  1 -0.128388
  C  C82  1  0.70100520  0.15632711  0.13083420  1 0.072703
  C  C83  1  0.76272377  0.23507667  0.13617083  1 -0.114511
  C  C84  1  0.85355404  0.24950418  0.18012689  1 -0.040609
  C  C85  1  0.88200512  0.18638776  0.21977361  1 -0.087375
  C  C86  1  0.81815753  0.10934108  0.21555382  1 -0.042777
  C  C87  1  0.72855390  0.09450100  0.17131240  1 -0.116573
  C  C88  1  0.84766234  0.04042918  0.25658097  1 0.614564
  C  C89  1  0.81214685  0.64926511  0.87870099  1 0.589658
  C  C90  1  0.92786007  0.32803471  0.18291821  1 0.611114
  C  C91  1  0.86931212  0.59600255  0.06956141  1 0.558047
  C  C92  1  0.69517300  0.50211465  0.56500568  1 -0.127824
  C  C93  1  0.68857216  0.57897490  0.53769597  1 -0.126713
  C  C94  1  0.58825157  0.60247754  0.49859405  1 0.033786
  C  C95  1  0.50374900  0.45941047  0.51405295  1 0.006637
  C  C96  1  0.60259196  0.44116900  0.55543042  1 0.029439
  C  C97  1  0.60692854  0.36213103  0.58432108  1 0.025708
  C  C98  1  0.51781265  0.30210280  0.57035513  1 -0.181595
  C  C99  1  0.57953198  0.68218045  0.47008951  1 0.026344
  C  C100  1  0.67365468  0.74628975  0.47547546  1 0.070532
  C  C101  1  0.72861420  0.79105807  0.52148254  1 -0.118444
  C  C102  1  0.81257362  0.85427218  0.52110067  1 -0.020862
  C  C103  1  0.84194543  0.87391930  0.47466744  1 -0.087884
  C  C104  1  0.78721074  0.82970901  0.42881829  1 -0.034356
  C  C105  1  0.70487945  0.76613581  0.42949735  1 -0.128387
  C  C106  1  0.70100248  0.34367143  0.63083202  1 0.072125
  C  C107  1  0.76272033  0.26492681  0.63617053  1 -0.114451
  C  C108  1  0.85354829  0.25049561  0.68012329  1 -0.040591
  C  C109  1  0.88200698  0.31361534  0.71977288  1 -0.087346
  C  C110  1  0.81815667  0.39065954  0.71555241  1 -0.042756
  C  C111  1  0.72855484  0.40550064  0.67131271  1 -0.116545
  C  C112  1  0.84766420  0.45957099  0.75658137  1 0.61454
  C  C113  1  0.81214283  0.85073363  0.37870074  1 0.58982
  C  C114  1  0.92785132  0.17196388  0.68291900  1 0.61088
  C  C115  1  0.86931618  0.90399860  0.56956069  1 0.558107
  C  C116  1  0.30482288  0.00210960  0.93499696  1 -0.127829
  C  C117  1  0.31142675  0.07896989  0.96230564  1 -0.126631
  C  C118  1  0.41174831  0.10247608  0.00140678  1 0.033716
  C  C119  1  0.49624952  0.95940836  0.98594909  1 0.006669
  C  C120  1  0.39740555  0.94116635  0.94457111  1 0.030031
  C  C121  1  0.39306949  0.86212747  0.91567991  1 0.023777
  C  C122  1  0.48218373  0.80210208  0.92964554  1 -0.180945
  C  C123  1  0.42047048  0.18217864  0.02991016  1 0.026453
  C  C124  1  0.32634840  0.24628850  0.02452089  1 0.070372
  C  C125  1  0.27138497  0.29106105  0.97851570  1 -0.118358
  C  C126  1  0.18743899  0.35426690  0.97889636  1 -0.020862
  C  C127  1  0.15805410  0.37392620  0.02533137  1 -0.088031
  C  C128  1  0.21280050  0.32970528  0.07118034  1 -0.034599
  C  C129  1  0.29511619  0.26614177  0.07050100  1 -0.128115
  C  C130  1  0.29899791  0.84367425  0.86916678  1 0.072636
  C  C131  1  0.23727974  0.76492270  0.86382831  1 -0.11441
  C  C132  1  0.14645017  0.75049549  0.81987207  1 -0.04065
  C  C133  1  0.11799550  0.81361266  0.78022626  1 -0.087383
  C  C134  1  0.18184659  0.89066277  0.78444742  1 -0.042799
  C  C135  1  0.27144806  0.90549848  0.82868949  1 -0.116467
  C  C136  1  0.15233397  0.95957306  0.74341941  1 0.614748
  C  C137  1  0.18785522  0.35074065  0.12129552  1 0.589891
  C  C138  1  0.07214239  0.67196618  0.81707563  1 0.611022
  C  C139  1  0.13069485  0.40399629  0.93043075  1 0.55817
  O  O140  1  0.23505029  0.19510868  0.66228118  1 -0.530776
  O  O141  1  0.12222609  0.08521577  0.62518895  1 -0.580546
  O  O142  1  -0.02319644  0.82480597  0.28227131  1 -0.5571
  O  O143  1  0.10563550  0.89061540  0.34928638  1 -0.53645
  O  O144  1  0.21498145  0.47089556  0.25196199  1 -0.537004
  O  O145  1  0.06866567  0.55340763  0.20417635  1 -0.552839
  O  O146  1  0.04997238  0.04213733  0.43348008  1 -0.548161
  O  O147  1  0.15976957  0.10452460  0.38825955  1 -0.547872
  O  O148  1  0.76494460  0.69510475  0.83771862  1 -0.530725
  O  O149  1  0.87777363  0.58521486  0.87481191  1 -0.580533
  O  O150  1  0.02320154  0.32481195  0.21773033  1 -0.557266
  O  O151  1  0.89437203  0.39061113  0.15071107  1 -0.536281
  O  O152  1  0.78502690  0.97089672  0.24803822  1 -0.536834
  O  O153  1  0.93134367  0.05340831  0.29582753  1 -0.552884
  O  O154  1  0.95003063  0.54214841  0.06652044  1 -0.548043
  O  O155  1  0.84022376  0.60452092  0.11174168  1 -0.547939
  O  O156  1  0.76494165  0.80489390  0.33771975  1 -0.530815
  O  O157  1  0.87776939  0.91478747  0.37481124  1 -0.580592
  O  O158  1  0.02318764  0.17518522  0.71773036  1 -0.55711
  O  O159  1  0.89435583  0.10938265  0.65071270  1 -0.536231
  O  O160  1  0.78502959  0.52910270  0.74803822  1 -0.536856
  O  O161  1  0.93134115  0.44658707  0.79582726  1 -0.552899
  O  O162  1  0.95002750  0.95785992  0.56652120  1 -0.54808
  O  O163  1  0.84023153  0.89547368  0.61174515  1 -0.547967
  O  O164  1  0.23506166  0.30489318  0.16227918  1 -0.530868
  O  O165  1  0.12224216  0.41478899  0.12518837  1 -0.58043
  O  O166  1  -0.02318962  0.67518637  0.78226815  1 -0.557092
  O  O167  1  0.10564104  0.60938001  0.84928557  1 -0.536363
  O  O168  1  0.21497600  0.02910761  0.75196332  1 -0.537031
  O  O169  1  0.06865826  0.94659590  0.70417747  1 -0.552885
  O  O170  1  0.04998757  0.45786728  0.93347973  1 -0.548216
  O  O171  1  0.15975961  0.39546354  0.88825510  1 -0.547842
