# generated using pymatgen
data_ZnH20C30NO4
_symmetry_space_group_name_H-M   'P 1'
_cell_length_a   15.11014452
_cell_length_b   27.64624281
_cell_length_c   15.93747888
_cell_angle_alpha   90.00000362
_cell_angle_beta   95.02669713
_cell_angle_gamma   89.99999646
_symmetry_Int_Tables_number   1
_chemical_formula_structural   ZnH20C30NO4
_chemical_formula_sum   'Zn8 H160 C240 N8 O32'
_cell_volume   6632.09643833
_cell_formula_units_Z   8
loop_
 _symmetry_equiv_pos_site_id
 _symmetry_equiv_pos_as_xyz
  1  'x, y, z'
loop_
 _atom_site_type_symbol
 _atom_site_label
 _atom_site_symmetry_multiplicity
 _atom_site_fract_x
 _atom_site_fract_y
 _atom_site_fract_z
 _atom_site_occupancy
 _atom_site_charge
  Zn  Zn0  1  0.06117839  0.50389454  0.43631223  1 0.823077
  Zn  Zn1  1  0.43882160  0.00389452  0.06368771  1 0.823076
  Zn  Zn2  1  0.93882159  0.49610545  0.56368779  1 0.823083
  Zn  Zn3  1  0.56117841  0.99610547  0.93631228  1 0.823077
  Zn  Zn4  1  0.56117835  0.00389454  0.43631222  1 0.823074
  Zn  Zn5  1  0.93882160  0.50389455  0.06368770  1 0.823065
  Zn  Zn6  1  0.43882162  0.99610546  0.56368779  1 0.823066
  Zn  Zn7  1  0.06117840  0.49610545  0.93631228  1 0.823085
  H  H8  1  0.02560314  0.36037132  0.68068080  1 0.105426
  H  H9  1  0.09351528  0.28258745  0.72881487  1 0.095573
  H  H10  1  0.27562527  0.29231459  0.53550240  1 0.09515
  H  H11  1  0.20604369  0.37100281  0.48837213  1 0.101406
  H  H12  1  0.29240571  0.22712645  0.63082342  1 0.101287
  H  H13  1  0.14406144  0.21495749  0.74994171  1 0.087398
  H  H14  1  0.16540865  0.16075298  0.85777035  1 0.093607
  H  H15  1  0.25026650  0.09422536  0.93411078  1 0.113264
  H  H16  1  0.42550412  0.08672453  0.73601760  1 0.116132
  H  H17  1  0.34342766  0.15317904  0.66034332  1 0.102779
  H  H18  1  0.24049258  0.46770399  0.43917715  1 0.086176
  H  H19  1  0.36673515  0.46743409  0.34823931  1 0.103596
  H  H20  1  0.20010946  0.54858036  0.16430754  1 0.116507
  H  H21  1  0.08157262  0.54570054  0.26241831  1 0.097429
  H  H22  1  0.43200101  0.49757473  0.22440587  1 0.098755
  H  H23  1  0.29053963  0.51553746  0.07719723  1 0.108327
  H  H24  1  0.58301365  0.57671482  0.84738639  1 0.095516
  H  H25  1  0.48746426  0.64876320  0.84514386  1 0.093403
  H  H26  1  0.36839955  0.65545830  0.94354565  1 0.094836
  H  H27  1  0.34517615  0.58926886  0.04347574  1 0.097381
  H  H28  1  0.47439686  0.86037130  0.81931918  1 0.105425
  H  H29  1  0.40648469  0.78258744  0.77118513  1 0.095575
  H  H30  1  0.22437473  0.79231464  0.96449767  1 0.095151
  H  H31  1  0.29395637  0.87100286  0.01162789  1 0.101406
  H  H32  1  0.20759422  0.72712652  0.86917662  1 0.101264
  H  H33  1  0.35593845  0.71495751  0.75005827  1 0.087401
  H  H34  1  0.33459124  0.66075303  0.64222967  1 0.093611
  H  H35  1  0.24973351  0.59422536  0.56588928  1 0.113265
  H  H36  1  0.07449588  0.58672450  0.76398242  1 0.116126
  H  H37  1  0.15657220  0.65317906  0.83965667  1 0.102776
  H  H38  1  0.25950754  0.96770394  0.06082287  1 0.086169
  H  H39  1  0.13326492  0.96743408  0.15176064  1 0.103597
  H  H40  1  0.29989056  0.04858036  0.33569248  1 0.116508
  H  H41  1  0.41842742  0.04570052  0.23758172  1 0.097429
  H  H42  1  0.06799903  -0.00242529  0.27559409  1 0.098755
  H  H43  1  0.20946041  0.01553741  0.42280274  1 0.108333
  H  H44  1  0.91698639  0.07671482  0.65261360  1 0.095518
  H  H45  1  0.01253576  0.14876320  0.65485612  1 0.093402
  H  H46  1  0.13160047  0.15545829  0.55645433  1 0.094819
  H  H47  1  0.15482388  0.08926885  0.45652426  1 0.09738
  H  H48  1  0.97439684  0.63962868  0.31931916  1 0.105425
  H  H49  1  0.90648467  0.71741256  0.27118516  1 0.095577
  H  H50  1  0.72437473  0.70768539  0.46449766  1 0.095149
  H  H51  1  0.79395636  0.62899716  0.51162793  1 0.101406
  H  H52  1  0.70759425  0.77287351  0.36917663  1 0.101284
  H  H53  1  0.85593850  0.78504247  0.25005832  1 0.087402
  H  H54  1  0.83459129  0.83924696  0.14222965  1 0.093606
  H  H55  1  0.74973352  0.90577464  0.06588930  1 0.113265
  H  H56  1  0.57449589  0.91327547  0.26398249  1 0.116132
  H  H57  1  0.65657230  0.84682093  0.33965668  1 0.102777
  H  H58  1  0.75950752  0.53229602  0.56082291  1 0.086122
  H  H59  1  0.63326489  0.53256591  0.65176068  1 0.103579
  H  H60  1  0.79989054  0.45141961  0.83569249  1 0.116508
  H  H61  1  0.91842741  0.45429943  0.73758174  1 0.09743
  H  H62  1  0.56799903  0.50242530  0.77559416  1 0.098755
  H  H63  1  0.70946044  0.48446255  0.92280278  1 0.108331
  H  H64  1  0.41698640  0.42328520  0.15261364  1 0.095516
  H  H65  1  0.51253575  0.35123680  0.15485613  1 0.093404
  H  H66  1  0.63160044  0.34454169  0.05645433  1 0.094836
  H  H67  1  0.65482387  0.41073114  0.95652427  1 0.097382
  H  H68  1  0.52560313  0.13962870  0.18068083  1 0.105425
  H  H69  1  0.59351530  0.21741257  0.22881489  1 0.095573
  H  H70  1  0.77562525  0.20768538  0.03550236  1 0.095151
  H  H71  1  0.70604361  0.12899717  0.98837211  1 0.101408
  H  H72  1  0.79240574  0.27287351  0.13082341  1 0.101289
  H  H73  1  0.64406143  0.28504250  0.24994169  1 0.087399
  H  H74  1  0.66540868  0.33924701  0.35777038  1 0.093611
  H  H75  1  0.75026655  0.40577464  0.43411077  1 0.113265
  H  H76  1  0.92550411  0.41327545  0.23601754  1 0.116132
  H  H77  1  0.84342761  0.34682094  0.16034330  1 0.102778
  H  H78  1  0.74049257  0.03229605  0.93917708  1 0.086129
  H  H79  1  0.86673514  0.03256593  0.84823924  1 0.103577
  H  H80  1  0.70010945  0.95141962  0.66430752  1 0.116507
  H  H81  1  0.58157263  0.95429945  0.76241829  1 0.097429
  H  H82  1  0.93200100  0.00242528  0.72440578  1 0.098756
  H  H83  1  0.79053957  0.98446258  0.57719716  1 0.108333
  H  H84  1  0.08301360  0.92328517  0.34738635  1 0.095515
  H  H85  1  0.98746427  0.85123678  0.34514386  1 0.093402
  H  H86  1  0.86839956  0.84454169  0.44354565  1 0.094835
  H  H87  1  0.84517613  0.91073115  0.54347569  1 0.09738
  H  H88  1  0.52560316  0.86037133  0.68068084  1 0.105424
  H  H89  1  0.59351531  0.78258745  0.72881487  1 0.095576
  H  H90  1  0.77562526  0.79231461  0.53550237  1 0.09515
  H  H91  1  0.70604367  0.87100284  0.48837211  1 0.101407
  H  H92  1  0.79240572  0.72712648  0.63082340  1 0.101285
  H  H93  1  0.64406150  0.71495752  0.74994172  1 0.087398
  H  H94  1  0.66540873  0.66075305  0.85777036  1 0.093606
  H  H95  1  0.75026648  0.59422537  0.93411074  1 0.113264
  H  H96  1  0.92550412  0.58672453  0.73601755  1 0.116126
  H  H97  1  0.84342772  0.65317909  0.66034333  1 0.102778
  H  H98  1  0.74049246  0.96770394  0.43917709  1 0.08612
  H  H99  1  0.86673509  0.96743407  0.34823933  1 0.103578
  H  H100  1  0.70010947  0.04858036  0.16430751  1 0.116507
  H  H101  1  0.58157263  0.04570057  0.26241828  1 0.097427
  H  H102  1  0.93200099  -0.00242529  0.22440588  1 0.098754
  H  H103  1  0.79053958  0.01553744  0.07719725  1 0.108333
  H  H104  1  0.08301361  0.07671483  0.84738638  1 0.095516
  H  H105  1  0.98746425  0.14876322  0.84514390  1 0.093403
  H  H106  1  0.86839955  0.15545832  0.94354569  1 0.094835
  H  H107  1  0.84517613  0.08926886  0.04347573  1 0.097382
  H  H108  1  0.97439685  0.36037131  0.81931920  1 0.105425
  H  H109  1  0.90648471  0.28258744  0.77118513  1 0.095573
  H  H110  1  0.72437473  0.29231459  0.96449763  1 0.095147
  H  H111  1  0.79395633  0.37100281  0.01162790  1 0.101429
  H  H112  1  0.70759428  0.22712646  0.86917660  1 0.101289
  H  H113  1  0.85593857  0.21495750  0.75005830  1 0.087398
  H  H114  1  0.83459135  0.16075299  0.64222963  1 0.093609
  H  H115  1  0.74973349  0.09422536  0.56588922  1 0.113264
  H  H116  1  0.57449590  0.08672454  0.76398243  1 0.116134
  H  H117  1  0.65657238  0.15317905  0.83965668  1 0.102779
  H  H118  1  0.75950753  0.46770396  0.06082289  1 0.08617
  H  H119  1  0.63326493  0.46743408  0.15176068  1 0.103597
  H  H120  1  0.79989059  0.54858038  0.33569247  1 0.116507
  H  H121  1  0.91842742  0.54570055  0.23758172  1 0.097429
  H  H122  1  0.56799905  0.49757472  0.27559412  1 0.098756
  H  H123  1  0.70946042  0.51553739  0.42280279  1 0.108334
  H  H124  1  0.41698644  0.57671484  0.65261366  1 0.095519
  H  H125  1  0.51253580  0.64876322  0.65485613  1 0.093401
  H  H126  1  0.63160049  0.65545830  0.55645430  1 0.094818
  H  H127  1  0.65482387  0.58926885  0.45652424  1 0.097381
  H  H128  1  0.47439685  0.13962868  0.31931917  1 0.105425
  H  H129  1  0.40648470  0.21741256  0.27118512  1 0.095576
  H  H130  1  0.22437474  0.20768540  0.46449762  1 0.095151
  H  H131  1  0.29395633  0.12899719  0.51162788  1 0.101406
  H  H132  1  0.20759426  0.27287354  0.36917659  1 0.101285
  H  H133  1  0.35593854  0.28504250  0.25005830  1 0.087401
  H  H134  1  0.33459135  0.33924701  0.14222967  1 0.093607
  H  H135  1  0.24973351  0.40577464  0.06588926  1 0.113266
  H  H136  1  0.07449587  0.41327546  0.26398241  1 0.116132
  H  H137  1  0.15657232  0.34682095  0.33965669  1 0.102778
  H  H138  1  0.25950749  0.03229603  0.56082288  1 0.086128
  H  H139  1  0.13326487  0.03256592  0.65176067  1 0.103578
  H  H140  1  0.29989052  0.95141961  0.83569247  1 0.116507
  H  H141  1  0.41842738  0.95429946  0.73758173  1 0.097427
  H  H142  1  0.06799901  0.00242530  0.77559414  1 0.098754
  H  H143  1  0.20946040  0.98446256  0.92280278  1 0.108333
  H  H144  1  0.91698638  0.92328518  0.15261362  1 0.095516
  H  H145  1  0.01253575  0.85123680  0.15485612  1 0.093404
  H  H146  1  0.13160046  0.84454170  0.05645433  1 0.094836
  H  H147  1  0.15482386  0.91073114  0.95652427  1 0.097382
  H  H148  1  0.02560315  0.63962870  0.18068083  1 0.105425
  H  H149  1  0.09351532  0.71741257  0.22881487  1 0.095573
  H  H150  1  0.27562524  0.70768539  0.03550235  1 0.095151
  H  H151  1  0.20604366  0.62899717  0.98837211  1 0.101407
  H  H152  1  0.29240572  0.77287354  0.13082340  1 0.101289
  H  H153  1  0.14406143  0.78504250  0.24994168  1 0.087399
  H  H154  1  0.16540865  0.83924700  0.35777036  1 0.09361
  H  H155  1  0.25026650  0.90577463  0.43411078  1 0.113264
  H  H156  1  0.42550410  0.91327546  0.23601756  1 0.116135
  H  H157  1  0.34342762  0.84682095  0.16034331  1 0.102779
  H  H158  1  0.24049252  0.53229604  0.93917712  1 0.086177
  H  H159  1  0.36673511  0.53256593  0.84823931  1 0.103596
  H  H160  1  0.20010947  0.45141964  0.66430750  1 0.116512
  H  H161  1  0.08157264  0.45429945  0.76241827  1 0.09743
  H  H162  1  0.43200100  0.50242530  0.72440585  1 0.098754
  H  H163  1  0.29053961  0.48446257  0.57719723  1 0.108332
  H  H164  1  0.58301360  0.42328519  0.34738636  1 0.095518
  H  H165  1  0.48746424  0.35123679  0.34514386  1 0.093401
  H  H166  1  0.36839955  0.34454170  0.44354567  1 0.094819
  H  H167  1  0.34517613  0.41073115  0.54347573  1 0.097381
  C  C168  1  0.07184227  0.41793599  0.55466573  1 0.57615
  C  C169  1  0.11200640  0.37043228  0.58193339  1 -0.041259
  C  C170  1  0.08026817  0.34488422  0.64924064  1 -0.088878
  C  C171  1  0.11806407  0.30107698  0.67507189  1 -0.132685
  C  C172  1  0.18893189  0.28101488  0.63440799  1 0.114905
  C  C173  1  0.22032715  0.30711667  0.56704072  1 -0.142682
  C  C174  1  0.18226948  0.35098720  0.54088928  1 -0.097758
  C  C175  1  0.23178008  0.23569055  0.66063384  1 -0.139758
  C  C176  1  0.20420006  0.20553408  0.71997663  1 -0.122783
  C  C177  1  0.24957515  0.16286378  0.75495074  1 0.106697
  C  C178  1  0.22232317  0.14435296  0.83096357  1 -0.139949
  C  C179  1  0.26931297  0.10749643  0.87389396  1 -0.088389
  C  C180  1  0.34425113  0.08747785  0.84116918  1 -0.035663
  C  C181  1  0.36899438  0.10350425  0.76282049  1 -0.082057
  C  C182  1  0.32231113  0.14071486  0.72038601  1 -0.127662
  C  C183  1  0.39931355  0.05140878  0.89241856  1 0.575583
  C  C184  1  0.23558537  0.48595247  0.37840953  1 0.100951
  C  C185  1  0.30503691  0.48574916  0.32739892  1 -0.176638
  C  C186  1  0.29416624  0.50781704  0.24792536  1 0.157058
  C  C187  1  0.21239187  0.53034276  0.22466536  1 -0.168781
  C  C188  1  0.14609408  0.52923455  0.27939756  1 0.111489
  C  C189  1  0.36613398  0.50504902  0.19320728  1 -0.132615
  C  C190  1  0.35679551  0.50888025  0.10873777  1 -0.092537
  C  C191  1  0.43028720  0.50382477  0.05485911  1 0.018322
  C  C192  1  0.44637933  0.54212315  -0.00083299  1 0.02193
  C  C193  1  0.51628531  0.53845501  0.94313291  1 0.03057
  C  C194  1  0.52954043  0.57845800  0.88870408  1 -0.133924
  C  C195  1  0.47663052  0.61895281  0.88806590  1 -0.084237
  C  C196  1  0.40885377  0.62276295  0.94399667  1 -0.075764
  C  C197  1  0.39531055  0.58563258  0.99872312  1 -0.129786
  C  C198  1  0.42815775  0.91793601  0.94533423  1 0.576147
  C  C199  1  0.38799359  0.87043228  0.91806662  1 -0.04126
  C  C200  1  0.41973184  0.84488422  0.85075936  1 -0.088877
  C  C201  1  0.38193592  0.80107698  0.82492812  1 -0.132684
  C  C202  1  0.31106810  0.78101489  0.86559202  1 0.114899
  C  C203  1  0.27967284  0.80711669  0.93295932  1 -0.142681
  C  C204  1  0.31773053  0.85098722  0.95911074  1 -0.09776
  C  C205  1  0.26821983  0.73569059  0.83936614  1 -0.139715
  C  C206  1  0.29579979  0.70553411  0.78002334  1 -0.1228
  C  C207  1  0.25042474  0.66286383  0.74504923  1 0.1067
  C  C208  1  0.27767670  0.64435301  0.66903640  1 -0.13995
  C  C209  1  0.23068693  0.60749647  0.62610600  1 -0.088388
  C  C210  1  0.15574878  0.58747786  0.65883086  1 -0.035632
  C  C211  1  0.13100551  0.60350428  0.73717947  1 -0.082071
  C  C212  1  0.17768871  0.64071491  0.77961397  1 -0.127669
  C  C213  1  0.10068651  0.55140875  0.60758141  1 0.575556
  C  C214  1  0.26441471  0.98595244  0.12159048  1 0.100952
  C  C215  1  0.19496315  0.98574914  0.17260107  1 -0.176639
  C  C216  1  0.20583379  0.00781703  0.25207463  1 0.157058
  C  C217  1  0.28760815  0.03034275  0.27533465  1 -0.168784
  C  C218  1  0.35390595  0.02923453  0.22060246  1 0.111487
  C  C219  1  0.13386604  0.00504901  0.30679268  1 -0.132611
  C  C220  1  0.14320452  0.00888022  0.39126222  1 -0.092532
  C  C221  1  0.06971283  0.00382475  0.44514087  1 0.018305
  C  C222  1  0.05362071  0.04212313  0.50083297  1 0.02193
  C  C223  1  0.98371473  0.03845501  0.55686707  1 0.030574
  C  C224  1  0.97045959  0.07845800  0.61129591  1 -0.13394
  C  C225  1  0.02336951  0.11895282  0.61193408  1 -0.084279
  C  C226  1  0.09114625  0.12276294  0.55600331  1 -0.07568
  C  C227  1  0.10468949  0.08563257  0.50127687  1 -0.1298
  C  C228  1  0.92815782  0.58206400  0.44533419  1 0.576146
  C  C229  1  0.88799360  0.62956771  0.41806664  1 -0.04126
  C  C230  1  0.91973183  0.65511577  0.35075936  1 -0.088878
  C  C231  1  0.88193592  0.69892302  0.32492815  1 -0.132684
  C  C232  1  0.81106810  0.71898512  0.36559205  1 0.114905
  C  C233  1  0.77967285  0.69288333  0.43295934  1 -0.142683
  C  C234  1  0.81773054  0.64901279  0.45911076  1 -0.097758
  C  C235  1  0.76821984  0.76430942  0.33936618  1 -0.139754
  C  C236  1  0.79579984  0.79446589  0.28002333  1 -0.122788
  C  C237  1  0.75042480  0.83713616  0.24504924  1 0.106695
  C  C238  1  0.77767674  0.85564697  0.16903640  1 -0.139949
  C  C239  1  0.73068694  0.89250352  0.12610603  1 -0.088386
  C  C240  1  0.65574879  0.91252213  0.15883088  1 -0.035662
  C  C241  1  0.63100552  0.89649570  0.23717951  1 -0.082059
  C  C242  1  0.67768877  0.85928508  0.27961398  1 -0.12766
  C  C243  1  0.60068648  0.94859123  0.10758146  1 0.575582
  C  C244  1  0.76441469  0.51404754  0.62159053  1 0.100956
  C  C245  1  0.69496314  0.51425084  0.67260111  1 -0.176541
  C  C246  1  0.70583377  0.49218296  0.75207467  1 0.157036
  C  C247  1  0.78760815  0.46965723  0.77533467  1 -0.168774
  C  C248  1  0.85390594  0.47076544  0.72060250  1 0.111489
  C  C249  1  0.63386604  0.49495098  0.80679273  1 -0.132611
  C  C250  1  0.64320454  0.49111976  0.89126226  1 -0.092534
  C  C251  1  0.56971285  0.49617525  0.94514092  1 0.018305
  C  C252  1  0.55362072  0.45787687  0.00083300  1 0.021932
  C  C253  1  0.48371474  0.46154500  0.05686711  1 0.030568
  C  C254  1  0.47045961  0.42154201  0.11129594  1 -0.133923
  C  C255  1  0.52336949  0.38104719  0.11193409  1 -0.084237
  C  C256  1  0.59114624  0.37723705  0.05600332  1 -0.075763
  C  C257  1  0.60468948  0.41436742  0.00127690  1 -0.129789
  C  C258  1  0.57184221  0.08206401  0.05466579  1 0.576147
  C  C259  1  0.61200637  0.12956773  0.08193340  1 -0.04126
  C  C260  1  0.58026816  0.15511579  0.14924067  1 -0.088878
  C  C261  1  0.61806407  0.19892303  0.17507191  1 -0.132686
  C  C262  1  0.68893189  0.21898512  0.13440798  1 0.114907
  C  C263  1  0.72032712  0.19288332  0.06704070  1 -0.142683
  C  C264  1  0.68226944  0.14901280  0.04088928  1 -0.097759
  C  C265  1  0.73178008  0.26430945  0.16063385  1 -0.139765
  C  C266  1  0.70420007  0.29446590  0.21997660  1 -0.122781
  C  C267  1  0.74957514  0.33713621  0.25495075  1 0.106697
  C  C268  1  0.72232321  0.35564704  0.33096357  1 -0.139953
  C  C269  1  0.76931301  0.39250356  0.37389395  1 -0.088391
  C  C270  1  0.84425117  0.41252214  0.34116916  1 -0.035652
  C  C271  1  0.86899438  0.39649573  0.26282047  1 -0.082057
  C  C272  1  0.82231113  0.35928513  0.22038599  1 -0.127662
  C  C273  1  0.89931357  0.44859123  0.39241849  1 0.575596
  C  C274  1  0.73558538  0.01404755  0.87840948  1 0.100948
  C  C275  1  0.80503690  0.01425084  0.82739887  1 -0.176543
  C  C276  1  0.79416625  0.99218295  0.74792532  1 0.157035
  C  C277  1  0.71239187  0.96965723  0.72466534  1 -0.168784
  C  C278  1  0.64609411  0.97076545  0.77939755  1 0.111492
  C  C279  1  0.86613396  0.99495098  0.69320720  1 -0.132609
  C  C280  1  0.85679547  0.99111978  0.60873772  1 -0.092535
  C  C281  1  0.93028716  0.99617525  0.55485905  1 0.018306
  C  C282  1  0.94637929  0.95787686  0.49916696  1 0.021927
  C  C283  1  0.01628527  0.96154498  0.44313287  1 0.030569
  C  C284  1  0.02954040  0.92154200  0.38870404  1 -0.133923
  C  C285  1  0.97663051  0.88104717  0.38806589  1 -0.084238
  C  C286  1  0.90885377  0.87723704  0.44399666  1 -0.075771
  C  C287  1  0.89531052  0.91436742  0.49872307  1 -0.129771
  C  C288  1  0.57184218  0.91793599  0.55466583  1 0.576146
  C  C289  1  0.61200641  0.87043229  0.58193338  1 -0.04126
  C  C290  1  0.58026817  0.84488424  0.64924066  1 -0.088877
  C  C291  1  0.61806409  0.80107698  0.67507188  1 -0.132684
  C  C292  1  0.68893189  0.78101488  0.63440798  1 0.114905
  C  C293  1  0.72032715  0.80711667  0.56704069  1 -0.142682
  C  C294  1  0.68226947  0.85098722  0.54088928  1 -0.097757
  C  C295  1  0.73178015  0.73569058  0.66063384  1 -0.139755
  C  C296  1  0.70420015  0.70553411  0.71997670  1 -0.122785
  C  C297  1  0.74957521  0.66286384  0.75495077  1 0.106698
  C  C298  1  0.72232326  0.64435303  0.83096361  1 -0.139948
  C  C299  1  0.76931305  0.60749647  0.87389402  1 -0.088388
  C  C300  1  0.84425120  0.58747787  0.84116914  1 -0.035641
  C  C301  1  0.86899448  0.60350429  0.76282053  1 -0.082052
  C  C302  1  0.82231124  0.64071493  0.72038603  1 -0.127675
  C  C303  1  0.89931346  0.55140878  0.89241859  1 0.575556
  C  C304  1  0.73558531  0.98595243  0.37840948  1 0.100951
  C  C305  1  0.80503685  0.98574914  0.32739892  1 -0.176541
  C  C306  1  0.79416623  0.00781703  0.24792535  1 0.157037
  C  C307  1  0.71239187  0.03034275  0.22466534  1 -0.168781
  C  C308  1  0.64609408  0.02923455  0.27939752  1 0.111491
  C  C309  1  0.86613397  0.00504901  0.19320728  1 -0.132612
  C  C310  1  0.85679549  0.00888024  0.10873778  1 -0.092533
  C  C311  1  0.93028717  0.00382476  0.05485909  1 0.018306
  C  C312  1  0.94637929  0.04212314  -0.00083301  1 0.021931
  C  C313  1  0.01628527  0.03845502  0.94313290  1 0.030569
  C  C314  1  0.02954040  0.07845801  0.88870408  1 -0.133923
  C  C315  1  0.97663051  0.11895282  0.88806592  1 -0.084237
  C  C316  1  0.90885376  0.12276296  0.94399669  1 -0.075764
  C  C317  1  0.89531051  0.08563258  0.99872311  1 -0.129786
  C  C318  1  0.92815760  0.41793597  0.94533428  1 0.576153
  C  C319  1  0.88799356  0.37043225  0.91806659  1 -0.041301
  C  C320  1  0.91973180  0.34488420  0.85075937  1 -0.088866
  C  C321  1  0.88193594  0.30107697  0.82492810  1 -0.132687
  C  C322  1  0.81106809  0.28101488  0.86559203  1 0.1149
  C  C323  1  0.77967285  0.30711666  0.93295929  1 -0.142666
  C  C324  1  0.81773047  0.35098718  0.95911075  1 -0.097764
  C  C325  1  0.76821992  0.23569054  0.83936615  1 -0.139764
  C  C326  1  0.79579994  0.20553409  0.78002339  1 -0.122781
  C  C327  1  0.75042488  0.16286379  0.74504924  1 0.106697
  C  C328  1  0.77767683  0.14435296  0.66903642  1 -0.139953
  C  C329  1  0.73068703  0.10749644  0.62610604  1 -0.088389
  C  C330  1  0.65574888  0.08747785  0.65883081  1 -0.035668
  C  C331  1  0.63100563  0.10350426  0.73717952  1 -0.082055
  C  C332  1  0.67768889  0.14071487  0.77961399  1 -0.127662
  C  C333  1  0.60068644  0.05140877  0.60758149  1 0.575621
  C  C334  1  0.76441471  0.48595245  0.12159049  1 0.100953
  C  C335  1  0.69496316  0.48574915  0.17260110  1 -0.176638
  C  C336  1  0.70583380  0.50781704  0.25207465  1 0.157058
  C  C337  1  0.78760816  0.53034276  0.27533466  1 -0.168784
  C  C338  1  0.85390597  0.52923455  0.22060245  1 0.111486
  C  C339  1  0.63386606  0.50504901  0.30679273  1 -0.132611
  C  C340  1  0.64320451  0.50888022  0.39126224  1 -0.092533
  C  C341  1  0.56971281  0.50382476  0.44514089  1 0.018305
  C  C342  1  0.55362070  0.54212314  0.50083298  1 0.02193
  C  C343  1  0.48371473  0.53845502  0.55686710  1 0.030575
  C  C344  1  0.47045963  0.57845801  0.61129594  1 -0.133939
  C  C345  1  0.52336953  0.61895282  0.61193409  1 -0.084279
  C  C346  1  0.59114627  0.62276295  0.55600330  1 -0.075679
  C  C347  1  0.60468949  0.58563257  0.50127688  1 -0.1298
  C  C348  1  0.42815771  0.08206401  0.44533429  1 0.576146
  C  C349  1  0.38799359  0.12956772  0.41806660  1 -0.04126
  C  C350  1  0.41973180  0.15511577  0.35075935  1 -0.088879
  C  C351  1  0.38193593  0.19892301  0.32492809  1 -0.132684
  C  C352  1  0.31106809  0.21898511  0.36559202  1 0.114906
  C  C353  1  0.27967285  0.19288332  0.43295928  1 -0.142684
  C  C354  1  0.31773051  0.14901280  0.45911073  1 -0.097758
  C  C355  1  0.26821990  0.26430945  0.33936617  1 -0.139755
  C  C356  1  0.29579992  0.29446591  0.28002340  1 -0.122789
  C  C357  1  0.25042484  0.33713621  0.24504927  1 0.106697
  C  C358  1  0.27767682  0.35564703  0.16903645  1 -0.139949
  C  C359  1  0.23068703  0.39250356  0.12610608  1 -0.088391
  C  C360  1  0.15574887  0.41252215  0.15883084  1 -0.035658
  C  C361  1  0.13100560  0.39649575  0.23717953  1 -0.082056
  C  C362  1  0.17768886  0.35928513  0.27961400  1 -0.127662
  C  C363  1  0.10068643  0.44859124  0.10758152  1 0.575637
  C  C364  1  0.26441468  0.01404755  0.62159051  1 0.10095
  C  C365  1  0.19496312  0.01425086  0.67260110  1 -0.17654
  C  C366  1  0.20583377  0.99218297  0.75207466  1 0.157036
  C  C367  1  0.28760811  0.96965724  0.77533466  1 -0.16878
  C  C368  1  0.35390592  0.97076545  0.72060247  1 0.111491
  C  C369  1  0.13386603  0.99495099  0.80679273  1 -0.132611
  C  C370  1  0.14320451  0.99111976  0.89126225  1 -0.092533
  C  C371  1  0.06971281  0.99617525  0.94514090  1 0.018306
  C  C372  1  0.05362069  0.95787687  0.00083299  1 0.021932
  C  C373  1  0.98371471  0.96154500  0.05686710  1 0.030569
  C  C374  1  0.97045959  0.92154201  0.11129593  1 -0.133923
  C  C375  1  0.02336950  0.88104719  0.11193408  1 -0.084236
  C  C376  1  0.09114625  0.87723705  0.05600332  1 -0.075763
  C  C377  1  0.10468947  0.91436743  0.00127688  1 -0.129788
  C  C378  1  0.07184216  0.58206402  0.05466584  1 0.576147
  C  C379  1  0.11200639  0.62956772  0.08193339  1 -0.04126
  C  C380  1  0.08026817  0.65511579  0.14924066  1 -0.088877
  C  C381  1  0.11806409  0.69892303  0.17507190  1 -0.132686
  C  C382  1  0.18893190  0.71898512  0.13440797  1 0.114907
  C  C383  1  0.22032713  0.69288332  0.06704069  1 -0.142682
  C  C384  1  0.18226946  0.64901279  0.04088928  1 -0.097759
  C  C385  1  0.23178008  0.76430945  0.16063383  1 -0.139764
  C  C386  1  0.20420006  0.79446591  0.21997659  1 -0.122781
  C  C387  1  0.24957512  0.83713621  0.25495075  1 0.106697
  C  C388  1  0.22232318  0.85564703  0.33096357  1 -0.139953
  C  C389  1  0.26931296  0.89250355  0.37389397  1 -0.088387
  C  C390  1  0.34425114  0.91252214  0.34116917  1 -0.035658
  C  C391  1  0.36899435  0.89649573  0.26282048  1 -0.082058
  C  C392  1  0.32231112  0.85928513  0.22038600  1 -0.127662
  C  C393  1  0.39931348  0.94859121  0.39241860  1 0.575559
  C  C394  1  0.23558534  0.51404756  0.87840950  1 0.100949
  C  C395  1  0.30503687  0.51425085  0.82739890  1 -0.17664
  C  C396  1  0.29416626  0.49218296  0.74792535  1 0.157057
  C  C397  1  0.21239188  0.46965723  0.72466534  1 -0.16879
  C  C398  1  0.14609411  0.47076546  0.77939752  1 0.111485
  C  C399  1  0.36613398  0.49495100  0.69320728  1 -0.132611
  C  C400  1  0.35679550  0.49111977  0.60873776  1 -0.092532
  C  C401  1  0.43028719  0.49617526  0.55485908  1 0.018305
  C  C402  1  0.44637928  0.45787688  0.49916698  1 0.02193
  C  C403  1  0.51628526  0.46154499  0.44313287  1 0.030574
  C  C404  1  0.52954039  0.42154201  0.38870405  1 -0.133941
  C  C405  1  0.47663050  0.38104719  0.38806590  1 -0.084279
  C  C406  1  0.40885377  0.37723706  0.44399668  1 -0.075679
  C  C407  1  0.39531052  0.41436743  0.49872310  1 -0.1298
  N  N408  1  0.15733959  0.50747315  0.35526287  1 -0.213663
  N  N409  1  0.34266047  0.00747314  0.14473716  1 -0.21366
  N  N410  1  0.84266046  0.49252685  0.64473721  1 -0.213687
  N  N411  1  0.65733960  0.99252686  0.85526284  1 -0.213668
  N  N412  1  0.65733954  0.00747313  0.35526282  1 -0.21367
  N  N413  1  0.84266047  0.50747315  0.14473717  1 -0.21366
  N  N414  1  0.34266043  0.99252687  0.64473719  1 -0.213673
  N  N415  1  0.15733955  0.49252686  0.85526283  1 -0.213658
  O  O416  1  0.10481107  0.43908954  0.49368616  1 -0.551081
  O  O417  1  0.00842052  0.43362634  0.59501400  1 -0.546105
  O  O418  1  0.37136613  0.03861429  0.96237907  1 -0.56068
  O  O419  1  0.47075856  0.03704483  0.86356978  1 -0.535344
  O  O420  1  0.39518887  0.93908956  0.00631388  1 -0.551081
  O  O421  1  0.49157938  0.93362635  0.90498602  1 -0.5461
  O  O422  1  0.12863392  0.53861429  0.53762097  1 -0.560654
  O  O423  1  0.02924142  0.53704478  0.63643021  1 -0.535351
  O  O424  1  0.89518892  0.56091041  0.50631387  1 -0.551075
  O  O425  1  0.99157944  0.56637368  0.40498601  1 -0.546105
  O  O426  1  0.62863394  0.96138569  0.03762096  1 -0.560682
  O  O427  1  0.52924143  0.96295519  0.13643020  1 -0.535342
  O  O428  1  0.60481107  0.06091045  0.99368618  1 -0.551075
  O  O429  1  0.50842052  0.06637367  0.09501401  1 -0.546104
  O  O430  1  0.87136611  0.46138572  0.46237906  1 -0.560719
  O  O431  1  0.97075853  0.46295518  0.36356975  1 -0.535327
  O  O432  1  0.60481107  0.93908957  0.49368611  1 -0.551075
  O  O433  1  0.50842058  0.93362633  0.59501400  1 -0.546102
  O  O434  1  0.87136609  0.53861431  0.96237902  1 -0.560651
  O  O435  1  0.97075859  0.53704481  0.86356977  1 -0.535349
  O  O436  1  0.89518886  0.43908953  0.00631381  1 -0.551082
  O  O437  1  0.99157945  0.43362630  0.90498600  1 -0.546098
  O  O438  1  0.62863395  0.03861427  0.53762090  1 -0.560684
  O  O439  1  0.52924151  0.03704482  0.63643021  1 -0.535364
  O  O440  1  0.39518893  0.06091045  0.50631383  1 -0.551077
  O  O441  1  0.49157947  0.06637367  0.40498600  1 -0.546102
  O  O442  1  0.12863399  0.46138572  0.03762090  1 -0.560735
  O  O443  1  0.02924150  0.46295519  0.13643017  1 -0.535343
  O  O444  1  0.10481111  0.56091043  0.99368614  1 -0.551078
  O  O445  1  0.00842053  0.56637369  0.09501395  1 -0.546102
  O  O446  1  0.37136610  0.96138570  0.46237903  1 -0.56065
  O  O447  1  0.47075857  0.96295517  0.36356975  1 -0.535351
