# generated using pymatgen
data_ZnH16C22(NO2)2
_symmetry_space_group_name_H-M   'P 1'
_cell_length_a   26.93866311
_cell_length_b   26.93866309
_cell_length_c   4.36575611
_cell_angle_alpha   90.00000000
_cell_angle_beta   90.00000000
_cell_angle_gamma   89.99999998
_symmetry_Int_Tables_number   1
_chemical_formula_structural   ZnH16C22(NO2)2
_chemical_formula_sum   'Zn8 H128 C176 N16 O32'
_cell_volume   3168.19240261
_cell_formula_units_Z   8
loop_
 _symmetry_equiv_pos_site_id
 _symmetry_equiv_pos_as_xyz
  1  'x, y, z'
loop_
 _atom_site_type_symbol
 _atom_site_label
 _atom_site_symmetry_multiplicity
 _atom_site_fract_x
 _atom_site_fract_y
 _atom_site_fract_z
 _atom_site_occupancy
 _atom_site_charge
  Zn  Zn0  1  0.26441503  0.21430680  0.10298078  1 0.881692
  Zn  Zn1  1  0.76441503  0.71430680  0.60298078  1 0.881691
  Zn  Zn2  1  0.73558497  0.78569320  0.10298078  1 0.881695
  Zn  Zn3  1  0.23558497  0.28569320  0.60298078  1 0.881691
  Zn  Zn4  1  0.21430680  0.73558497  0.89701922  1 0.881694
  Zn  Zn5  1  0.71430680  0.23558497  0.39701922  1 0.881691
  Zn  Zn6  1  0.78569320  0.26441503  0.89701922  1 0.881691
  Zn  Zn7  1  0.28569320  0.76441503  0.39701922  1 0.881691
  H  H8  1  0.19746804  0.27860302  0.10365839  1 0.371506
  H  H9  1  0.27848272  0.11163779  0.42163395  1 0.117487
  H  H10  1  0.17760227  0.19275657  0.61745419  1 0.143498
  H  H11  1  0.12290071  0.18793706  0.16525126  1 0.121643
  H  H12  1  0.07531076  0.13727094  0.79579862  1 0.096408
  H  H13  1  0.06925839  0.04629943  0.86191868  1 0.097869
  H  H14  1  0.10577611  0.00501777  0.30970248  1 0.104002
  H  H15  1  0.16212911  0.00825285  0.75597678  1 0.123285
  H  H16  1  0.35913164  0.04572389  0.94452622  1 0.124441
  H  H17  1  0.40058164  0.95220258  0.14897149  1 0.122882
  H  H18  1  0.21680467  0.89476794  0.41185417  1 0.103165
  H  H19  1  0.17966193  0.98745494  0.30386167  1 0.100144
  H  H20  1  0.30920481  0.04364648  0.53985571  1 0.078742
  H  H21  1  0.33878631  0.96401981  0.69076326  1 0.05489
  H  H22  1  0.27260327  0.89833845  0.85747060  1 0.104323
  H  H23  1  0.23293316  0.98664796  0.72888260  1 0.094625
  H  H24  1  0.69746804  0.77860302  0.60365839  1 0.371507
  H  H25  1  0.77848272  0.61163779  0.92163395  1 0.117487
  H  H26  1  0.67760227  0.69275657  0.11745419  1 0.143498
  H  H27  1  0.62290071  0.68793706  0.66525126  1 0.121643
  H  H28  1  0.57531076  0.63727094  0.29579862  1 0.096407
  H  H29  1  0.56925839  0.54629943  0.36191867  1 0.097869
  H  H30  1  0.60577611  0.50501777  0.80970248  1 0.104002
  H  H31  1  0.66212911  0.50825285  0.25597679  1 0.123285
  H  H32  1  0.85913164  0.54572389  0.44452621  1 0.124441
  H  H33  1  0.90058164  0.45220258  0.64897149  1 0.122883
  H  H34  1  0.71680467  0.39476794  0.91185417  1 0.103165
  H  H35  1  0.67966193  0.48745494  0.80386167  1 0.100144
  H  H36  1  0.80920481  0.54364648  0.03985571  1 0.078742
  H  H37  1  0.83878631  0.46401981  0.19076326  1 0.05489
  H  H38  1  0.77260327  0.39833845  0.35747060  1 0.104323
  H  H39  1  0.73293316  0.48664796  0.22888260  1 0.094625
  H  H40  1  0.80253196  0.72139698  0.10365839  1 0.371507
  H  H41  1  0.72151728  0.88836221  0.42163395  1 0.117487
  H  H42  1  0.82239773  0.80724343  0.61745419  1 0.143497
  H  H43  1  0.87709929  0.81206294  0.16525126  1 0.121643
  H  H44  1  0.92468924  0.86272906  0.79579862  1 0.096407
  H  H45  1  0.93074161  0.95370057  0.86191867  1 0.09787
  H  H46  1  0.89422389  0.99498223  0.30970248  1 0.104002
  H  H47  1  0.83787089  0.99174715  0.75597679  1 0.123285
  H  H48  1  0.64086836  0.95427611  0.94452622  1 0.124441
  H  H49  1  0.59941836  0.04779742  0.14897149  1 0.122882
  H  H50  1  0.78319533  0.10523206  0.41185417  1 0.103165
  H  H51  1  0.82033807  0.01254506  0.30386167  1 0.100144
  H  H52  1  0.69079519  0.95635352  0.53985571  1 0.078742
  H  H53  1  0.66121369  0.03598019  0.69076326  1 0.05489
  H  H54  1  0.72739673  0.10166155  0.85747060  1 0.104323
  H  H55  1  0.76706684  0.01335204  0.72888260  1 0.094625
  H  H56  1  0.30253196  0.22139698  0.60365839  1 0.371506
  H  H57  1  0.22151728  0.38836221  0.92163395  1 0.117487
  H  H58  1  0.32239773  0.30724343  0.11745419  1 0.143498
  H  H59  1  0.37709929  0.31206294  0.66525126  1 0.121643
  H  H60  1  0.42468924  0.36272906  0.29579862  1 0.096408
  H  H61  1  0.43074161  0.45370057  0.36191868  1 0.09787
  H  H62  1  0.39422389  0.49498223  0.80970248  1 0.104002
  H  H63  1  0.33787089  0.49174715  0.25597678  1 0.123285
  H  H64  1  0.14086836  0.45427611  0.44452622  1 0.12444
  H  H65  1  0.09941836  0.54779742  0.64897149  1 0.122882
  H  H66  1  0.28319533  0.60523206  0.91185417  1 0.103165
  H  H67  1  0.32033807  0.51254506  0.80386167  1 0.100144
  H  H68  1  0.19079519  0.45635352  0.03985571  1 0.078742
  H  H69  1  0.16121369  0.53598019  0.19076326  1 0.05489
  H  H70  1  0.22739673  0.60166155  0.35747060  1 0.104323
  H  H71  1  0.26706684  0.51335204  0.22888260  1 0.094625
  H  H72  1  0.27860302  0.80253196  0.89634161  1 0.371506
  H  H73  1  0.11163779  0.72151728  0.57836605  1 0.117487
  H  H74  1  0.19275657  0.82239773  0.38254581  1 0.143497
  H  H75  1  0.18793706  0.87709929  0.83474874  1 0.121643
  H  H76  1  0.13727094  0.92468924  0.20420138  1 0.096407
  H  H77  1  0.04629943  0.93074161  0.13808132  1 0.097871
  H  H78  1  0.00501777  0.89422389  0.69029752  1 0.104002
  H  H79  1  0.00825285  0.83787089  0.24402322  1 0.123285
  H  H80  1  0.04572389  0.64086836  0.05547378  1 0.12444
  H  H81  1  0.95220258  0.59941836  0.85102851  1 0.122881
  H  H82  1  0.89476794  0.78319533  0.58814583  1 0.103165
  H  H83  1  0.98745494  0.82033807  0.69613833  1 0.100143
  H  H84  1  0.04364648  0.69079519  0.46014429  1 0.078742
  H  H85  1  0.96401981  0.66121369  0.30923674  1 0.05489
  H  H86  1  0.89833845  0.72739673  0.14252940  1 0.104323
  H  H87  1  0.98664796  0.76706684  0.27111740  1 0.094625
  H  H88  1  0.77860302  0.30253196  0.39634161  1 0.371506
  H  H89  1  0.61163779  0.22151728  0.07836605  1 0.117487
  H  H90  1  0.69275657  0.32239773  0.88254580  1 0.143498
  H  H91  1  0.68793706  0.37709929  0.33474874  1 0.121643
  H  H92  1  0.63727094  0.42468924  0.70420138  1 0.096407
  H  H93  1  0.54629943  0.43074161  0.63808132  1 0.097871
  H  H94  1  0.50501777  0.39422389  0.19029752  1 0.104002
  H  H95  1  0.50825285  0.33787089  0.74402322  1 0.123285
  H  H96  1  0.54572389  0.14086836  0.55547378  1 0.12444
  H  H97  1  0.45220258  0.09941836  0.35102851  1 0.122882
  H  H98  1  0.39476794  0.28319533  0.08814583  1 0.103165
  H  H99  1  0.48745494  0.32033807  0.19613833  1 0.100144
  H  H100  1  0.54364648  0.19079519  0.96014429  1 0.078742
  H  H101  1  0.46401981  0.16121369  0.80923674  1 0.05489
  H  H102  1  0.39833845  0.22739673  0.64252940  1 0.104323
  H  H103  1  0.48664796  0.26706684  0.77111740  1 0.094625
  H  H104  1  0.72139698  0.19746804  0.89634161  1 0.371506
  H  H105  1  0.88836221  0.27848272  0.57836605  1 0.117487
  H  H106  1  0.80724343  0.17760227  0.38254581  1 0.143497
  H  H107  1  0.81206294  0.12290071  0.83474874  1 0.121643
  H  H108  1  0.86272906  0.07531076  0.20420138  1 0.096407
  H  H109  1  0.95370057  0.06925839  0.13808132  1 0.097871
  H  H110  1  0.99498223  0.10577611  0.69029752  1 0.104002
  H  H111  1  0.99174715  0.16212911  0.24402322  1 0.123285
  H  H112  1  0.95427611  0.35913164  0.05547378  1 0.12444
  H  H113  1  0.04779742  0.40058164  0.85102851  1 0.122882
  H  H114  1  0.10523206  0.21680467  0.58814583  1 0.103165
  H  H115  1  0.01254506  0.17966193  0.69613833  1 0.100144
  H  H116  1  0.95635352  0.30920481  0.46014429  1 0.078742
  H  H117  1  0.03598019  0.33878631  0.30923674  1 0.05489
  H  H118  1  0.10166155  0.27260327  0.14252940  1 0.104323
  H  H119  1  0.01335204  0.23293316  0.27111740  1 0.094625
  H  H120  1  0.22139698  0.69746804  0.39634161  1 0.371507
  H  H121  1  0.38836221  0.77848272  0.07836605  1 0.117487
  H  H122  1  0.30724343  0.67760227  0.88254581  1 0.143498
  H  H123  1  0.31206294  0.62290071  0.33474874  1 0.121643
  H  H124  1  0.36272906  0.57531076  0.70420138  1 0.096407
  H  H125  1  0.45370057  0.56925839  0.63808132  1 0.097871
  H  H126  1  0.49498223  0.60577611  0.19029752  1 0.104002
  H  H127  1  0.49174715  0.66212911  0.74402322  1 0.123285
  H  H128  1  0.45427611  0.85913164  0.55547378  1 0.12444
  H  H129  1  0.54779742  0.90058164  0.35102851  1 0.122881
  H  H130  1  0.60523206  0.71680467  0.08814583  1 0.103165
  H  H131  1  0.51254506  0.67966193  0.19613833  1 0.100143
  H  H132  1  0.45635352  0.80920481  0.96014429  1 0.078742
  H  H133  1  0.53598019  0.83878631  0.80923674  1 0.05489
  H  H134  1  0.60166155  0.77260327  0.64252940  1 0.104323
  H  H135  1  0.51335204  0.73293316  0.77111740  1 0.094625
  C  C136  1  0.25041229  0.10833626  0.24545785  1 0.154104
  C  C137  1  0.20229019  0.12823437  0.86413209  1 0.147195
  C  C138  1  0.17523981  0.15256209  0.63825995  1 -0.186122
  C  C139  1  0.14460295  0.12535376  0.44234795  1 0.045011
  C  C140  1  0.11912239  0.14814921  0.19916496  1 -0.150811
  C  C141  1  0.09188212  0.12024231  0.99623614  1 -0.08044
  C  C142  1  0.08847554  0.06822603  0.03455912  1 -0.059581
  C  C143  1  0.10999480  0.04500904  0.28300320  1 -0.190172
  C  C144  1  0.13974443  0.07180986  0.48803402  1 0.058121
  C  C145  1  0.16692193  0.04781342  0.72279394  1 -0.194138
  C  C146  1  0.20021061  0.07522199  0.89671822  1 0.095195
  C  C147  1  0.25658542  0.01610199  0.20185973  1 0.172271
  C  C148  1  0.29581854  0.92273453  0.34300222  1 -0.045039
  C  C149  1  0.34956475  0.01845590  0.11932241  1 -0.108994
  C  C150  1  0.36895394  0.97497321  0.21574170  1 -0.093157
  C  C151  1  0.23928310  0.92489302  0.32983144  1 -0.097321
  C  C152  1  0.21761700  0.97652922  0.26833806  1 -0.173776
  C  C153  1  0.31390142  0.86995686  0.39080698  1 0.530171
  C  C154  1  0.30703216  0.01759579  0.34618634  1 -0.094366
  C  C155  1  0.32848780  0.96515783  0.44073358  1 -0.026563
  C  C156  1  0.26916841  0.92648936  0.03670800  1 -0.115811
  C  C157  1  0.24591288  0.97763946  0.96605236  1 -0.115232
  C  C158  1  0.75041229  0.60833626  0.74545785  1 0.154103
  C  C159  1  0.70229019  0.62823437  0.36413208  1 0.147195
  C  C160  1  0.67523981  0.65256209  0.13825995  1 -0.186122
  C  C161  1  0.64460295  0.62535376  0.94234795  1 0.045011
  C  C162  1  0.61912238  0.64814921  0.69916496  1 -0.150811
  C  C163  1  0.59188212  0.62024231  0.49623615  1 -0.08044
  C  C164  1  0.58847554  0.56822603  0.53455912  1 -0.059581
  C  C165  1  0.60999480  0.54500904  0.78300320  1 -0.190172
  C  C166  1  0.63974443  0.57180985  0.98803402  1 0.058121
  C  C167  1  0.66692193  0.54781342  0.22279394  1 -0.194138
  C  C168  1  0.70021061  0.57522199  0.39671821  1 0.095195
  C  C169  1  0.75658542  0.51610199  0.70185973  1 0.172271
  C  C170  1  0.79581854  0.42273453  0.84300222  1 -0.045039
  C  C171  1  0.84956475  0.51845590  0.61932241  1 -0.108994
  C  C172  1  0.86895394  0.47497321  0.71574170  1 -0.093157
  C  C173  1  0.73928310  0.42489302  0.82983144  1 -0.097321
  C  C174  1  0.71761700  0.47652922  0.76833806  1 -0.173776
  C  C175  1  0.81390142  0.36995686  0.89080698  1 0.530172
  C  C176  1  0.80703216  0.51759579  0.84618634  1 -0.094366
  C  C177  1  0.82848780  0.46515783  0.94073358  1 -0.026563
  C  C178  1  0.76916841  0.42648936  0.53670800  1 -0.115811
  C  C179  1  0.74591288  0.47763946  0.46605236  1 -0.115232
  C  C180  1  0.74958771  0.89166374  0.24545785  1 0.154104
  C  C181  1  0.79770981  0.87176563  0.86413209  1 0.147195
  C  C182  1  0.82476019  0.84743791  0.63825994  1 -0.186122
  C  C183  1  0.85539705  0.87464624  0.44234795  1 0.045011
  C  C184  1  0.88087762  0.85185079  0.19916496  1 -0.150811
  C  C185  1  0.90811788  0.87975769  0.99623614  1 -0.08044
  C  C186  1  0.91152446  0.93177397  0.03455912  1 -0.059581
  C  C187  1  0.89000520  0.95499096  0.28300320  1 -0.190172
  C  C188  1  0.86025557  0.92819014  0.48803402  1 0.058121
  C  C189  1  0.83307807  0.95218658  0.72279394  1 -0.194138
  C  C190  1  0.79978939  0.92477801  0.89671821  1 0.095195
  C  C191  1  0.74341458  0.98389801  0.20185973  1 0.172271
  C  C192  1  0.70418146  0.07726547  0.34300222  1 -0.045039
  C  C193  1  0.65043525  0.98154410  0.11932241  1 -0.108994
  C  C194  1  0.63104606  0.02502679  0.21574170  1 -0.093157
  C  C195  1  0.76071690  0.07510698  0.32983144  1 -0.097321
  C  C196  1  0.78238300  0.02347078  0.26833806  1 -0.173776
  C  C197  1  0.68609859  0.13004314  0.39080698  1 0.530171
  C  C198  1  0.69296784  0.98240421  0.34618634  1 -0.094366
  C  C199  1  0.67151220  0.03484217  0.44073358  1 -0.026563
  C  C200  1  0.73083159  0.07351064  0.03670800  1 -0.115811
  C  C201  1  0.75408712  0.02236054  0.96605236  1 -0.115232
  C  C202  1  0.24958771  0.39166374  0.74545785  1 0.154104
  C  C203  1  0.29770981  0.37176563  0.36413209  1 0.147195
  C  C204  1  0.32476019  0.34743791  0.13825995  1 -0.186122
  C  C205  1  0.35539705  0.37464624  0.94234795  1 0.045011
  C  C206  1  0.38087761  0.35185079  0.69916496  1 -0.150811
  C  C207  1  0.40811788  0.37975769  0.49623614  1 -0.08044
  C  C208  1  0.41152446  0.43177397  0.53455912  1 -0.059581
  C  C209  1  0.39000520  0.45499096  0.78300320  1 -0.190172
  C  C210  1  0.36025557  0.42819014  0.98803402  1 0.058121
  C  C211  1  0.33307807  0.45218658  0.22279394  1 -0.194138
  C  C212  1  0.29978939  0.42477801  0.39671822  1 0.095195
  C  C213  1  0.24341458  0.48389801  0.70185973  1 0.172271
  C  C214  1  0.20418145  0.57726547  0.84300222  1 -0.045039
  C  C215  1  0.15043525  0.48154410  0.61932241  1 -0.108994
  C  C216  1  0.13104606  0.52502679  0.71574170  1 -0.093157
  C  C217  1  0.26071690  0.57510698  0.82983144  1 -0.097321
  C  C218  1  0.28238300  0.52347078  0.76833806  1 -0.173776
  C  C219  1  0.18609858  0.63004314  0.89080698  1 0.530171
  C  C220  1  0.19296784  0.48240421  0.84618634  1 -0.094366
  C  C221  1  0.17151220  0.53484217  0.94073358  1 -0.026563
  C  C222  1  0.23083159  0.57351064  0.53670800  1 -0.115811
  C  C223  1  0.25408712  0.52236054  0.46605236  1 -0.115232
  C  C224  1  0.10833626  0.74958771  0.75454215  1 0.154104
  C  C225  1  0.12823437  0.79770981  0.13586792  1 0.147195
  C  C226  1  0.15256209  0.82476019  0.36174006  1 -0.186122
  C  C227  1  0.12535376  0.85539705  0.55765205  1 0.045011
  C  C228  1  0.14814921  0.88087761  0.80083504  1 -0.150811
  C  C229  1  0.12024231  0.90811788  0.00376386  1 -0.08044
  C  C230  1  0.06822603  0.91152446  0.96544088  1 -0.059581
  C  C231  1  0.04500904  0.89000520  0.71699680  1 -0.190172
  C  C232  1  0.07180986  0.86025557  0.51196598  1 0.058121
  C  C233  1  0.04781342  0.83307807  0.27720606  1 -0.194138
  C  C234  1  0.07522199  0.79978939  0.10328179  1 0.095195
  C  C235  1  0.01610199  0.74341458  0.79814027  1 0.172271
  C  C236  1  0.92273453  0.70418146  0.65699778  1 -0.045039
  C  C237  1  0.01845590  0.65043525  0.88067759  1 -0.108994
  C  C238  1  0.97497321  0.63104606  0.78425830  1 -0.093157
  C  C239  1  0.92489302  0.76071690  0.67016856  1 -0.097321
  C  C240  1  0.97652922  0.78238300  0.73166194  1 -0.173776
  C  C241  1  0.86995686  0.68609858  0.60919302  1 0.530171
  C  C242  1  0.01759579  0.69296784  0.65381366  1 -0.094366
  C  C243  1  0.96515783  0.67151220  0.55926642  1 -0.026563
  C  C244  1  0.92648936  0.73083159  0.96329200  1 -0.115811
  C  C245  1  0.97763946  0.75408712  0.03394764  1 -0.115232
  C  C246  1  0.60833626  0.24958771  0.25454215  1 0.154103
  C  C247  1  0.62823437  0.29770981  0.63586792  1 0.147195
  C  C248  1  0.65256209  0.32476019  0.86174005  1 -0.186122
  C  C249  1  0.62535376  0.35539705  0.05765205  1 0.045011
  C  C250  1  0.64814921  0.38087761  0.30083504  1 -0.150811
  C  C251  1  0.62024231  0.40811788  0.50376386  1 -0.08044
  C  C252  1  0.56822603  0.41152446  0.46544088  1 -0.059581
  C  C253  1  0.54500904  0.39000520  0.21699680  1 -0.190172
  C  C254  1  0.57180986  0.36025557  0.01196598  1 0.058121
  C  C255  1  0.54781342  0.33307807  0.77720606  1 -0.194138
  C  C256  1  0.57522199  0.29978939  0.60328179  1 0.095195
  C  C257  1  0.51610199  0.24341458  0.29814027  1 0.172271
  C  C258  1  0.42273453  0.20418145  0.15699778  1 -0.045039
  C  C259  1  0.51845590  0.15043525  0.38067759  1 -0.108994
  C  C260  1  0.47497321  0.13104606  0.28425830  1 -0.093157
  C  C261  1  0.42489302  0.26071690  0.17016856  1 -0.097321
  C  C262  1  0.47652922  0.28238300  0.23166194  1 -0.173776
  C  C263  1  0.36995686  0.18609858  0.10919302  1 0.530171
  C  C264  1  0.51759579  0.19296784  0.15381366  1 -0.094366
  C  C265  1  0.46515783  0.17151220  0.05926642  1 -0.026563
  C  C266  1  0.42648936  0.23083159  0.46329200  1 -0.115811
  C  C267  1  0.47763946  0.25408712  0.53394764  1 -0.115232
  C  C268  1  0.89166374  0.25041229  0.75454215  1 0.154104
  C  C269  1  0.87176563  0.20229019  0.13586792  1 0.147195
  C  C270  1  0.84743791  0.17523981  0.36174005  1 -0.186122
  C  C271  1  0.87464624  0.14460295  0.55765205  1 0.045011
  C  C272  1  0.85185079  0.11912239  0.80083504  1 -0.150811
  C  C273  1  0.87975769  0.09188212  0.00376386  1 -0.08044
  C  C274  1  0.93177397  0.08847554  0.96544088  1 -0.059581
  C  C275  1  0.95499096  0.10999480  0.71699680  1 -0.190172
  C  C276  1  0.92819014  0.13974443  0.51196598  1 0.058121
  C  C277  1  0.95218658  0.16692193  0.27720606  1 -0.194138
  C  C278  1  0.92477801  0.20021061  0.10328178  1 0.095195
  C  C279  1  0.98389801  0.25658542  0.79814027  1 0.172271
  C  C280  1  0.07726547  0.29581855  0.65699778  1 -0.045039
  C  C281  1  0.98154410  0.34956475  0.88067759  1 -0.108994
  C  C282  1  0.02502679  0.36895394  0.78425830  1 -0.093157
  C  C283  1  0.07510698  0.23928310  0.67016856  1 -0.097321
  C  C284  1  0.02347078  0.21761700  0.73166194  1 -0.173776
  C  C285  1  0.13004314  0.31390142  0.60919302  1 0.530171
  C  C286  1  0.98240421  0.30703216  0.65381366  1 -0.094366
  C  C287  1  0.03484217  0.32848780  0.55926642  1 -0.026563
  C  C288  1  0.07351064  0.26916841  0.96329200  1 -0.115811
  C  C289  1  0.02236054  0.24591288  0.03394764  1 -0.115232
  C  C290  1  0.39166374  0.75041229  0.25454215  1 0.154103
  C  C291  1  0.37176563  0.70229019  0.63586792  1 0.147195
  C  C292  1  0.34743791  0.67523981  0.86174006  1 -0.186122
  C  C293  1  0.37464624  0.64460295  0.05765205  1 0.045011
  C  C294  1  0.35185079  0.61912239  0.30083504  1 -0.150811
  C  C295  1  0.37975769  0.59188212  0.50376386  1 -0.08044
  C  C296  1  0.43177397  0.58847554  0.46544088  1 -0.059581
  C  C297  1  0.45499096  0.60999480  0.21699680  1 -0.190172
  C  C298  1  0.42819014  0.63974443  0.01196598  1 0.058121
  C  C299  1  0.45218658  0.66692193  0.77720606  1 -0.194138
  C  C300  1  0.42477801  0.70021061  0.60328179  1 0.095195
  C  C301  1  0.48389801  0.75658542  0.29814027  1 0.172271
  C  C302  1  0.57726547  0.79581854  0.15699778  1 -0.045039
  C  C303  1  0.48154410  0.84956475  0.38067759  1 -0.108994
  C  C304  1  0.52502679  0.86895394  0.28425830  1 -0.093157
  C  C305  1  0.57510698  0.73928310  0.17016856  1 -0.097321
  C  C306  1  0.52347078  0.71761700  0.23166194  1 -0.173776
  C  C307  1  0.63004314  0.81390141  0.10919302  1 0.530172
  C  C308  1  0.48240421  0.80703216  0.15381366  1 -0.094366
  C  C309  1  0.53484217  0.82848780  0.05926642  1 -0.026563
  C  C310  1  0.57351064  0.76916841  0.46329200  1 -0.115811
  C  C311  1  0.52236054  0.74591288  0.53394764  1 -0.115232
  N  N312  1  0.23323451  0.14696241  0.08455887  1 -0.331863
  N  N313  1  0.23344019  0.06411681  0.13344028  1 -0.051966
  N  N314  1  0.73323451  0.64696241  0.58455886  1 -0.331861
  N  N315  1  0.73344019  0.56411681  0.63344028  1 -0.051966
  N  N316  1  0.76676549  0.85303759  0.08455886  1 -0.331863
  N  N317  1  0.76655981  0.93588319  0.13344028  1 -0.051966
  N  N318  1  0.26676549  0.35303759  0.58455887  1 -0.331863
  N  N319  1  0.26655981  0.43588319  0.63344028  1 -0.051966
  N  N320  1  0.14696241  0.76676549  0.91544113  1 -0.331863
  N  N321  1  0.06411681  0.76655981  0.86655972  1 -0.051966
  N  N322  1  0.64696241  0.26676549  0.41544113  1 -0.331862
  N  N323  1  0.56411681  0.26655981  0.36655972  1 -0.051966
  N  N324  1  0.85303759  0.23323451  0.91544114  1 -0.331863
  N  N325  1  0.93588319  0.23344019  0.86655972  1 -0.051966
  N  N326  1  0.35303759  0.73323451  0.41544114  1 -0.331862
  N  N327  1  0.43588319  0.73344019  0.36655972  1 -0.051966
  O  O328  1  0.23366005  0.28157471  0.09790052  1 -0.842255
  O  O329  1  0.27893683  0.83645527  0.39918659  1 -0.623556
  O  O330  1  0.35686817  0.86436304  0.59191355  1 -0.235048
  O  O331  1  0.35992940  0.85966416  0.23047134  1 -0.226458
  O  O332  1  0.73366005  0.78157471  0.59790052  1 -0.842256
  O  O333  1  0.77893683  0.33645527  0.89918659  1 -0.623556
  O  O334  1  0.85686817  0.36436304  0.09191355  1 -0.235049
  O  O335  1  0.85992940  0.35966416  0.73047134  1 -0.226458
  O  O336  1  0.76633995  0.71842529  0.09790052  1 -0.842255
  O  O337  1  0.72106317  0.16354473  0.39918659  1 -0.623556
  O  O338  1  0.64313183  0.13563696  0.59191355  1 -0.235049
  O  O339  1  0.64007060  0.14033584  0.23047134  1 -0.226458
  O  O340  1  0.26633995  0.21842529  0.59790052  1 -0.842255
  O  O341  1  0.22106317  0.66354473  0.89918659  1 -0.623557
  O  O342  1  0.14313183  0.63563696  0.09191355  1 -0.235048
  O  O343  1  0.14007060  0.64033584  0.73047134  1 -0.226458
  O  O344  1  0.28157471  0.76633995  0.90209948  1 -0.842254
  O  O345  1  0.83645527  0.72106317  0.60081341  1 -0.623556
  O  O346  1  0.86436304  0.64313183  0.40808645  1 -0.235048
  O  O347  1  0.85966416  0.64007060  0.76952866  1 -0.226458
  O  O348  1  0.78157471  0.26633995  0.40209948  1 -0.842254
  O  O349  1  0.33645527  0.22106317  0.10081341  1 -0.623556
  O  O350  1  0.36436304  0.14313183  0.90808645  1 -0.235049
  O  O351  1  0.35966416  0.14007060  0.26952867  1 -0.226458
  O  O352  1  0.71842529  0.23366005  0.90209948  1 -0.842254
  O  O353  1  0.16354473  0.27893683  0.60081341  1 -0.623556
  O  O354  1  0.13563696  0.35686817  0.40808645  1 -0.235049
  O  O355  1  0.14033584  0.35992940  0.76952867  1 -0.226458
  O  O356  1  0.21842529  0.73366005  0.40209948  1 -0.842256
  O  O357  1  0.66354473  0.77893683  0.10081341  1 -0.623557
  O  O358  1  0.63563696  0.85686817  0.90808645  1 -0.235049
  O  O359  1  0.64033584  0.85992940  0.26952866  1 -0.226458
