# generated using pymatgen
data_ZnH12C18(NO2)2
_symmetry_space_group_name_H-M   'P 1'
_cell_length_a   26.39926578
_cell_length_b   26.39924321
_cell_length_c   4.45299367
_cell_angle_alpha   90.00001543
_cell_angle_beta   90.00008238
_cell_angle_gamma   90.00005270
_symmetry_Int_Tables_number   1
_chemical_formula_structural   ZnH12C18(NO2)2
_chemical_formula_sum   'Zn8 H96 C144 N16 O32'
_cell_volume   3103.38318565
_cell_formula_units_Z   8
loop_
 _symmetry_equiv_pos_site_id
 _symmetry_equiv_pos_as_xyz
  1  'x, y, z'
loop_
 _atom_site_type_symbol
 _atom_site_label
 _atom_site_symmetry_multiplicity
 _atom_site_fract_x
 _atom_site_fract_y
 _atom_site_fract_z
 _atom_site_occupancy
 _atom_site_charge
  Zn  Zn0  1  0.26416381  0.21351784  0.09637821  1 0.886698
  Zn  Zn1  1  0.76416314  0.71351798  0.59637878  1 0.886718
  Zn  Zn2  1  0.73583622  0.78648239  0.09637921  1 0.886726
  Zn  Zn3  1  0.23583623  0.28648186  0.59637865  1 0.886683
  Zn  Zn4  1  0.21351779  0.73583614  -0.09637848  1 0.886677
  Zn  Zn5  1  0.71351840  0.23583661  0.40362136  1 0.886715
  Zn  Zn6  1  0.78648280  0.26416478  -0.09637899  1 0.886726
  Zn  Zn7  1  0.28648181  0.76416346  0.40362208  1 0.88667
  H  H8  1  0.19897777  0.28053101  0.06978577  1 0.362711
  H  H9  1  0.27677874  0.10526192  0.37983208  1 0.116272
  H  H10  1  0.17014786  0.19942496  0.64090434  1 0.140951
  H  H11  1  0.11810544  0.19860254  0.18426726  1 0.112131
  H  H12  1  0.06828217  0.15186229  0.80637086  1 0.095863
  H  H13  1  0.06039414  0.05780724  -0.15822991  1 0.095689
  H  H14  1  0.09853693  0.01126008  0.26475304  1 0.1031
  H  H15  1  0.15157712  0.01041771  0.72221727  1 0.123455
  H  H16  1  0.25602447  0.91644087  0.62644172  1 0.099678
  H  H17  1  0.34284997  0.93933154  -0.17454137  1 0.118163
  H  H18  1  0.30002930  0.02165088  0.74332434  1 0.126828
  H  H19  1  0.21443047  -0.00188426  0.54910297  1 0.09521
  H  H20  1  0.69897750  0.78053124  0.56978381  1 0.36275
  H  H21  1  0.77677901  0.60526160  0.87983028  1 0.116282
  H  H22  1  0.67014815  0.69942495  0.14090191  1 0.140966
  H  H23  1  0.61810563  0.69860225  0.68426509  1 0.112149
  H  H24  1  0.56828227  0.65186200  0.30637016  1 0.095868
  H  H25  1  0.56039401  0.55780710  0.34176963  1 0.095681
  H  H26  1  0.59853674  0.51126004  0.76475303  1 0.103105
  H  H27  1  0.65157667  0.51041787  0.22221851  1 0.123423
  H  H28  1  0.75602431  0.41644190  0.12645018  1 0.099766
  H  H29  1  0.84285153  0.43933181  0.32547342  1 0.118178
  H  H30  1  0.80002941  0.52165024  0.24332417  1 0.126782
  H  H31  1  0.71442895  0.49811568  0.04909915  1 0.095189
  H  H32  1  0.80102219  0.71946876  0.06978280  1 0.362689
  H  H33  1  0.72322088  0.89473820  0.37983170  1 0.116268
  H  H34  1  0.82985145  0.80057517  0.64090127  1 0.140972
  H  H35  1  0.88189411  0.80139748  0.18426514  1 0.112127
  H  H36  1  0.93171754  0.84813757  0.80636878  1 0.095861
  H  H37  1  0.93960565  0.94219263  -0.15822974  1 0.095691
  H  H38  1  0.90146284  -0.01126041  0.26475385  1 0.103125
  H  H39  1  0.84842275  0.98958216  0.72221736  1 0.123428
  H  H40  1  0.74397544  0.08355942  0.62644409  1 0.099709
  H  H41  1  0.65715012  0.06066856  -0.17454015  1 0.118165
  H  H42  1  0.69997065  0.97834917  0.74332417  1 0.126844
  H  H43  1  0.78556915  0.00188456  0.54910331  1 0.095176
  H  H44  1  0.30102254  0.21946886  0.56978507  1 0.36266
  H  H45  1  0.22322121  0.39473809  0.87983217  1 0.116281
  H  H46  1  0.32985197  0.30057507  0.14090205  1 0.140995
  H  H47  1  0.38189450  0.30139743  0.68426558  1 0.112132
  H  H48  1  0.43171779  0.34813743  0.30636821  1 0.095879
  H  H49  1  0.43960577  0.44219254  0.34176917  1 0.095691
  H  H50  1  0.40146290  0.48873959  0.76475241  1 0.103139
  H  H51  1  0.34842276  0.48958211  0.22221584  1 0.123436
  H  H52  1  0.24397525  0.58355912  0.12644425  1 0.099654
  H  H53  1  0.15714976  0.56066806  0.32546147  1 0.118147
  H  H54  1  0.19997059  0.47834882  0.24332320  1 0.126806
  H  H55  1  0.28556932  0.50188441  0.04910181  1 0.095176
  H  H56  1  0.28053111  0.80102202  -0.06978336  1 0.362761
  H  H57  1  0.10526179  0.72322067  0.62016728  1 0.116259
  H  H58  1  0.19942460  0.82985174  0.35909830  1 0.140956
  H  H59  1  0.19860222  0.88189450  0.81573481  1 0.112126
  H  H60  1  0.15186188  0.93171773  0.19362976  1 0.095854
  H  H61  1  0.05780705  0.93960571  0.15822947  1 0.095697
  H  H62  1  0.01126016  0.90146272  0.73524498  1 0.103091
  H  H63  1  0.01041782  0.84842256  0.27778017  1 0.123444
  H  H64  1  0.91644106  0.74397539  0.37355726  1 0.099705
  H  H65  1  0.93933115  0.65714967  0.17454065  1 0.118139
  H  H66  1  0.02165068  0.69997048  0.25667469  1 0.126835
  H  H67  1  -0.00188410  0.78556926  0.45089562  1 0.095172
  H  H68  1  0.78053189  0.30102380  0.43021624  1 0.362791
  H  H69  1  0.60526187  0.22322060  0.12016681  1 0.116256
  H  H70  1  0.69942482  0.32985195  -0.14090450  1 0.140993
  H  H71  1  0.69860231  0.38189450  0.31573305  1 0.112118
  H  H72  1  0.65186218  0.43171771  0.69362829  1 0.095847
  H  H73  1  0.55780726  0.43960570  0.65822920  1 0.095712
  H  H74  1  0.51126032  0.40146268  0.23524422  1 0.103115
  H  H75  1  0.51041806  0.34842254  0.77778026  1 0.123454
  H  H76  1  0.41644109  0.24397560  -0.12644360  1 0.099733
  H  H77  1  0.43933114  0.15715009  0.67453838  1 0.11816
  H  H78  1  0.52165062  0.19997051  0.75667455  1 0.126842
  H  H79  1  0.49811613  0.28556933  -0.04910476  1 0.095197
  H  H80  1  0.71946959  0.19897872  -0.06978318  1 0.362674
  H  H81  1  0.89473880  0.27677967  0.62017039  1 0.116263
  H  H82  1  0.80057496  0.17014799  0.35909323  1 0.140943
  H  H83  1  0.80139753  0.11810533  0.81573167  1 0.112083
  H  H84  1  0.84813750  0.06828210  0.19362815  1 0.095876
  H  H85  1  0.94219241  0.06039434  0.15822839  1 0.095708
  H  H86  1  -0.01126031  0.09853722  0.73524591  1 0.103156
  H  H87  1  0.98958201  0.15157711  0.27778194  1 0.12346
  H  H88  1  0.08355952  0.25602419  0.37355292  1 0.099689
  H  H89  1  0.06066912  0.34284982  0.17453717  1 0.118159
  H  H90  1  0.97834969  0.30002938  0.25667476  1 0.126778
  H  H91  1  0.00188454  0.21443055  0.45089571  1 0.09516
  H  H92  1  0.21946840  0.69897764  0.43021827  1 0.362621
  H  H93  1  0.39473817  0.77677884  0.12016853  1 0.116274
  H  H94  1  0.30057497  0.67014828  -0.14090207  1 0.140928
  H  H95  1  0.30139716  0.61810564  0.31573563  1 0.1121
  H  H96  1  0.34813725  0.56828219  0.69363129  1 0.095862
  H  H97  1  0.44219214  0.56039422  0.65822969  1 0.095716
  H  H98  1  0.48873921  0.59853695  0.23524670  1 0.103143
  H  H99  1  0.48958178  0.65157679  0.77778220  1 0.123477
  H  H100  1  0.58355896  0.75602392  -0.12644702  1 0.099686
  H  H101  1  0.56066855  0.84284983  0.67453721  1 0.118165
  H  H102  1  0.47834915  0.80002925  0.75667536  1 0.126744
  H  H103  1  0.50188412  0.71443031  -0.04910352  1 0.095175
  C  C104  1  0.24605619  0.10530599  0.21724783  1 0.147479
  C  C105  1  0.19628661  0.13090975  0.85686116  1 0.148403
  C  C106  1  0.16854896  0.15822520  0.64637225  1 -0.172192
  C  C107  1  0.13795896  0.13241751  0.44012738  1 0.051135
  C  C108  1  0.11306958  0.15785502  0.20554500  1 -0.1561
  C  C109  1  0.08520612  0.13182485  -0.00562002  1 -0.087347
  C  C110  1  0.08078656  0.07840129  0.01534198  1 -0.06317
  C  C111  1  0.10240451  0.05223810  0.25188633  1 -0.182959
  C  C112  1  0.13222012  0.07733879  0.46502835  1 0.058238
  C  C113  1  0.15797862  0.05088705  0.69425185  1 -0.192708
  C  C114  1  0.19277944  0.07683450  0.87000431  1 0.084387
  C  C115  1  0.26592879  0.93920868  0.43229992  1 -0.057496
  C  C116  1  0.30281503  0.92231770  0.23136198  1 -0.061175
  C  C117  1  0.31496554  0.95250627  -0.01179252  1 -0.070632
  C  C118  1  0.28850397  -0.00222737  -0.06955618  1 -0.122317
  C  C119  1  0.25016877  0.01306955  0.12939402  1 0.132642
  C  C120  1  0.23995410  0.98398695  0.37918245  1 -0.163759
  C  C121  1  0.32247114  0.86942007  0.27594191  1 0.546279
  C  C122  1  0.74605622  0.60530593  0.71724654  1 0.14745
  C  C123  1  0.69628688  0.63090952  0.35685866  1 0.148298
  C  C124  1  0.66854914  0.65822517  0.14637000  1 -0.17219
  C  C125  1  0.63795897  0.63241730  0.94012613  1 0.05114
  C  C126  1  0.61306973  0.65785486  0.70554401  1 -0.156143
  C  C127  1  0.58520615  0.63182466  0.49437947  1 -0.087339
  C  C128  1  0.58078644  0.57840120  0.51534119  1 -0.063072
  C  C129  1  0.60240438  0.55223802  0.75188656  1 -0.183052
  C  C130  1  0.63221997  0.57733868  0.96502819  1 0.05828
  C  C131  1  0.65797834  0.55088696  0.19425176  1 -0.192663
  C  C132  1  0.69277941  0.57683448  0.37000317  1 0.084393
  C  C133  1  0.76593014  0.43921024  0.93231268  1 -0.057481
  C  C134  1  0.80281744  0.42231968  0.73138172  1 -0.061177
  C  C135  1  0.81496721  0.45250695  0.48822222  1 -0.070777
  C  C136  1  0.78850450  0.49777228  0.43044772  1 -0.122226
  C  C137  1  0.75016881  0.51306933  0.62939494  1 0.132718
  C  C138  1  0.73995387  0.48398716  0.87918495  1 -0.16376
  C  C139  1  0.82247362  0.36942209  0.77596317  1 0.546239
  C  C140  1  0.75394374  0.89469418  0.21724702  1 0.147485
  C  C141  1  0.80371275  0.86909068  0.85686007  1 0.148437
  C  C142  1  0.83145059  0.84177452  0.64636969  1 -0.172282
  C  C143  1  0.86204065  0.86758274  0.44012641  1 0.05116
  C  C144  1  0.88693005  0.84214473  0.20554232  1 -0.156117
  C  C145  1  0.91479338  0.86817538  -0.00562041  1 -0.087298
  C  C146  1  0.91921338  0.92159832  0.01533942  1 -0.063165
  C  C147  1  0.89759516  0.94776205  0.25188724  1 -0.183018
  C  C148  1  0.86777962  0.92266082  0.46502719  1 0.058275
  C  C149  1  0.84202135  0.94911342  0.69425071  1 -0.192722
  C  C150  1  0.80722017  0.92316516  0.87000473  1 0.08446
  C  C151  1  0.73407054  0.06079152  0.43229878  1 -0.057578
  C  C152  1  0.69718527  0.07768256  0.23136662  1 -0.061059
  C  C153  1  0.68503404  0.04749371  -0.01179328  1 -0.07072
  C  C154  1  0.71149617  0.00222745  -0.06955376  1 -0.122361
  C  C155  1  0.74983074  0.98693037  0.12939072  1 0.132679
  C  C156  1  0.76004617  0.01601318  0.37918690  1 -0.163712
  C  C157  1  0.67752892  0.13058012  0.27594182  1 0.54636
  C  C158  1  0.25394397  0.39469404  0.71724624  1 0.147488
  C  C159  1  0.30371311  0.36909057  0.35686078  1 0.148362
  C  C160  1  0.33145093  0.34177441  0.14637025  1 -0.17228
  C  C161  1  0.36204090  0.36758264  0.94012618  1 0.051155
  C  C162  1  0.38693036  0.34214471  0.70554229  1 -0.156145
  C  C163  1  0.41479368  0.36817531  0.49437908  1 -0.087345
  C  C164  1  0.41921353  0.42159824  0.51533899  1 -0.063086
  C  C165  1  0.39759528  0.44776205  0.75188651  1 -0.183087
  C  C166  1  0.36777980  0.42266074  0.96502661  1 0.058302
  C  C167  1  0.34202151  0.44911335  0.19424969  1 -0.192723
  C  C168  1  0.30722022  0.42316511  0.37000442  1 0.084471
  C  C169  1  0.23407022  0.56079101  0.93229819  1 -0.057482
  C  C170  1  0.19718492  0.57768215  0.73136910  1 -0.061235
  C  C171  1  0.18503367  0.54749320  0.48820621  1 -0.070668
  C  C172  1  0.21149614  0.50222728  0.43044637  1 -0.122204
  C  C173  1  0.24983060  0.48693014  0.62938948  1 0.132658
  C  C174  1  0.26004608  0.51601307  0.87918731  1 -0.163737
  C  C175  1  0.17752840  0.63057963  0.77594281  1 0.546236
  C  C176  1  0.10530608  0.75394361  -0.21724771  1 0.147463
  C  C177  1  0.13090939  0.80371289  0.14313806  1 0.148413
  C  C178  1  0.15822536  0.83145071  0.35362894  1 -0.172228
  C  C179  1  0.13241716  0.86204094  0.55987380  1 0.051137
  C  C180  1  0.15785518  0.88692995  0.79445388  1 -0.156225
  C  C181  1  0.13182429  0.91479397  0.00562218  1 -0.087215
  C  C182  1  0.07840128  0.91921319  -0.01534284  1 -0.063176
  C  C183  1  0.05223790  0.89759544  0.74811350  1 -0.182946
  C  C184  1  0.07733904  0.86777956  0.53497018  1 0.058281
  C  C185  1  0.05088666  0.84202139  0.30574752  1 -0.192745
  C  C186  1  0.07683487  0.80722003  0.12999397  1 0.084435
  C  C187  1  0.93920856  0.73407073  0.56769785  1 -0.057442
  C  C188  1  0.92231790  0.69718454  0.76863733  1 -0.061283
  C  C189  1  0.95250601  0.68503401  0.01178931  1 -0.070559
  C  C190  1  -0.00222724  0.71149572  0.06955536  1 -0.122405
  C  C191  1  0.01306943  0.74983096  0.87060305  1 0.132678
  C  C192  1  0.98398719  0.76004583  0.62081678  1 -0.163672
  C  C193  1  0.86941992  0.67752890  0.72405700  1 0.546312
  C  C194  1  0.60530622  0.25394360  0.28275164  1 0.147441
  C  C195  1  0.63090948  0.30371299  0.64313601  1 0.148407
  C  C196  1  0.65822564  0.33145091  -0.14637281  1 -0.17226
  C  C197  1  0.63241733  0.36204104  0.05987246  1 0.051113
  C  C198  1  0.65785539  0.38693002  0.29445254  1 -0.156223
  C  C199  1  0.63182448  0.41479407  0.50562167  1 -0.087228
  C  C200  1  0.57840148  0.41921311  0.48465598  1 -0.063171
  C  C201  1  0.55223804  0.39759541  0.24811252  1 -0.182947
  C  C202  1  0.57733918  0.36777953  0.03496898  1 0.058279
  C  C203  1  0.55088684  0.34202135  0.80574690  1 -0.19273
  C  C204  1  0.57683512  0.30721992  0.62999281  1 0.084405
  C  C205  1  0.43920866  0.23407121  0.06769661  1 -0.057475
  C  C206  1  0.42231784  0.19718505  0.26863688  1 -0.061291
  C  C207  1  0.45250588  0.18503433  0.51178819  1 -0.070541
  C  C208  1  0.49777281  0.21149565  0.56955464  1 -0.122422
  C  C209  1  0.51306966  0.24983087  0.37060193  1 0.1327
  C  C210  1  0.48398739  0.26004583  0.12081570  1 -0.163754
  C  C211  1  0.36941979  0.17752973  0.22405723  1 0.546212
  C  C212  1  0.89469427  0.24605660  -0.21724816  1 0.147565
  C  C213  1  0.86909060  0.19628699  0.14313721  1 0.14842
  C  C214  1  0.84177457  0.16854903  0.35362724  1 -0.172212
  C  C215  1  0.86758256  0.13795914  0.55986950  1 0.051085
  C  C216  1  0.84214503  0.11306936  0.79445557  1 -0.156057
  C  C217  1  0.86817511  0.08520644  0.00561633  1 -0.087307
  C  C218  1  0.92159831  0.08078640  -0.01534067  1 -0.063105
  C  C219  1  0.94776194  0.10240502  0.74811023  1 -0.183112
  C  C220  1  0.92266111  0.13222017  0.53497137  1 0.058268
  C  C221  1  0.94911307  0.15797862  0.30574638  1 -0.19274
  C  C222  1  0.92316543  0.19277963  0.12999375  1 0.084362
  C  C223  1  0.06079098  0.26592936  0.56770024  1 -0.057495
  C  C224  1  0.07768308  0.30281448  0.76862835  1 -0.061243
  C  C225  1  0.04749388  0.31496579  0.01179340  1 -0.070609
  C  C226  1  0.00222801  0.28850382  0.06954998  1 -0.122322
  C  C227  1  0.98693006  0.25016950  0.87060847  1 0.13267
  C  C228  1  0.01601349  0.23995387  0.62080773  1 -0.163669
  C  C229  1  0.13058053  0.32247041  0.72405805  1 0.546306
  C  C230  1  0.39469387  0.74605613  0.28275113  1 0.147455
  C  C231  1  0.36909016  0.69628685  0.64313928  1 0.148375
  C  C232  1  0.34177453  0.66854910  -0.14637030  1 -0.172162
  C  C233  1  0.36758225  0.63795909  0.05987189  1 0.051086
  C  C234  1  0.34214476  0.61306943  0.29445878  1 -0.156089
  C  C235  1  0.36817478  0.58520648  0.50561882  1 -0.087311
  C  C236  1  0.42159803  0.58078629  0.48466059  1 -0.063116
  C  C237  1  0.44776154  0.60240481  0.24811146  1 -0.183073
  C  C238  1  0.42266072  0.63221996  0.03497278  1 0.058245
  C  C239  1  0.44911268  0.65797858  0.80574739  1 -0.192682
  C  C240  1  0.42316520  0.69277942  0.62999560  1 0.084367
  C  C241  1  0.56079068  0.76592924  0.06770032  1 -0.057472
  C  C242  1  0.57768255  0.80281442  0.26862772  1 -0.061315
  C  C243  1  0.54749324  0.81496580  0.51179454  1 -0.070604
  C  C244  1  0.50222779  0.78850353  0.56955090  1 -0.12218
  C  C245  1  0.48692974  0.75016912  0.37060974  1 0.132633
  C  C246  1  0.51601324  0.73995353  0.12080804  1 -0.163708
  C  C247  1  0.63057966  0.82247120  0.22405561  1 0.546352
  N  N248  1  0.22898808  0.14668144  0.07917295  1 -0.320832
  N  N249  1  0.22605014  0.06193512  0.09529626  1 -0.05586
  N  N250  1  0.72898823  0.64668111  0.57917147  1 -0.320814
  N  N251  1  0.72604990  0.56193496  0.59529654  1 -0.055896
  N  N252  1  0.77101159  0.85331879  0.07917164  1 -0.320893
  N  N253  1  0.77394974  0.93806500  0.09529651  1 -0.055873
  N  N254  1  0.27101187  0.35331858  0.57917187  1 -0.320856
  N  N255  1  0.27394985  0.43806492  0.59529585  1 -0.055879
  N  N256  1  0.14668122  0.77101159  -0.07917297  1 -0.320864
  N  N257  1  0.06193512  0.77394958  -0.09529763  1 -0.055863
  N  N258  1  0.64668137  0.27101163  0.42082528  1 -0.320835
  N  N259  1  0.56193535  0.27394950  0.40470190  1 -0.055814
  N  N260  1  0.85331902  0.22898857  -0.07917250  1 -0.320864
  N  N261  1  0.93806503  0.22605023  -0.09529873  1 -0.055885
  N  N262  1  0.35331839  0.72898814  0.42082847  1 -0.320808
  N  N263  1  0.43806471  0.72604996  0.40470192  1 -0.055872
  O  O264  1  0.23478304  0.28183637  0.12880790  1 -0.84954
  O  O265  1  0.28573496  0.83679699  0.31683398  1 -0.628908
  O  O266  1  0.36890220  0.86435222  0.44658699  1 -0.234964
  O  O267  1  0.36646067  0.85703348  0.09625808  1 -0.225358
  O  O268  1  0.73478271  0.78183631  0.62880739  1 -0.849602
  O  O269  1  0.78573710  0.33679796  -0.18316203  1 -0.628969
  O  O270  1  0.86890349  0.36435344  -0.05337597  1 -0.234959
  O  O271  1  0.86646415  0.35703653  0.59629132  1 -0.225289
  O  O272  1  0.76521693  0.71816378  0.12880915  1 -0.849506
  O  O273  1  0.71426524  0.16320313  0.31683248  1 -0.628921
  O  O274  1  0.63109789  0.13564818  0.44658669  1 -0.234972
  O  O275  1  0.63353953  0.14296666  0.09625755  1 -0.225408
  O  O276  1  0.26521713  0.21816350  0.62880745  1 -0.849491
  O  O277  1  0.21426491  0.66320276  -0.18316651  1 -0.628868
  O  O278  1  0.13109743  0.63564778  -0.05341247  1 -0.234885
  O  O279  1  0.13353918  0.64296623  0.59625823  1 -0.225392
  O  O280  1  0.28183631  0.76521674  -0.12880840  1 -0.84957
  O  O281  1  0.83679694  0.71426510  0.68316587  1 -0.628923
  O  O282  1  0.86435169  0.63109781  0.55341143  1 -0.234939
  O  O283  1  0.85703327  0.63353935  0.90374077  1 -0.225396
  O  O284  1  0.78183645  0.26521820  0.37119175  1 -0.84964
  O  O285  1  0.33679734  0.21426618  0.18315951  1 -0.628829
  O  O286  1  0.36435137  0.13109809  0.05341981  1 -0.234951
  O  O287  1  0.35703279  0.13354106  0.40374871  1 -0.225369
  O  O288  1  0.71816493  0.23478392  -0.12880674  1 -0.849506
  O  O289  1  0.16320281  0.28573353  0.68316079  1 -0.628817
  O  O290  1  0.13564955  0.36890213  0.55342480  1 -0.23499
  O  O291  1  0.14296792  0.36645850  0.90375409  1 -0.22539
  O  O292  1  0.21816332  0.73478292  0.37119078  1 -0.849429
  O  O293  1  0.66320267  0.78573466  0.18316455  1 -0.628919
  O  O294  1  0.63564814  0.86890223  0.05341172  1 -0.234952
  O  O295  1  0.64296629  0.86646052  0.40374100  1 -0.225387
