# generated using pymatgen
data_ZnH16C22(NO2)2
_symmetry_space_group_name_H-M   'P 1'
_cell_length_a   26.79537947
_cell_length_b   26.79535302
_cell_length_c   4.58003261
_cell_angle_alpha   90.00014922
_cell_angle_beta   89.99998165
_cell_angle_gamma   90.00024951
_symmetry_Int_Tables_number   1
_chemical_formula_structural   ZnH16C22(NO2)2
_chemical_formula_sum   'Zn8 H128 C176 N16 O32'
_cell_volume   3288.42517848
_cell_formula_units_Z   8
loop_
 _symmetry_equiv_pos_site_id
 _symmetry_equiv_pos_as_xyz
  1  'x, y, z'
loop_
 _atom_site_type_symbol
 _atom_site_label
 _atom_site_symmetry_multiplicity
 _atom_site_fract_x
 _atom_site_fract_y
 _atom_site_fract_z
 _atom_site_occupancy
 _atom_site_charge
  Zn  Zn0  1  0.26541126  0.21489071  0.07331217  1 0.871715
  Zn  Zn1  1  0.76540920  0.71489262  0.57330671  1 0.871759
  Zn  Zn2  1  0.73458897  0.78510925  0.07331334  1 0.871794
  Zn  Zn3  1  0.23459087  0.28510766  0.57330921  1 0.871699
  Zn  Zn4  1  0.21489187  0.73458777  0.92669814  1 0.871818
  Zn  Zn5  1  0.71489332  0.23458984  0.42670506  1 0.871782
  Zn  Zn6  1  0.78511045  0.26541062  0.92670466  1 0.871818
  Zn  Zn7  1  0.28510690  0.76540916  0.42670394  1 0.871813
  H  H8  1  0.19875469  0.28142643  0.09308937  1 0.369117
  H  H9  1  0.28390310  0.11042428  0.32378537  1 0.122422
  H  H10  1  0.17942263  0.19269740  0.56955348  1 0.138109
  H  H11  1  0.12650607  0.18786912  0.13341477  1 0.109002
  H  H12  1  0.07910298  0.13727398  0.77101608  1 0.091857
  H  H13  1  0.07314137  0.04535394  0.83170282  1 0.098321
  H  H14  1  0.11124440  0.00363982  0.25374392  1 0.100407
  H  H15  1  0.16642723  0.00676969  0.68575343  1 0.125504
  H  H16  1  0.33606699  0.02830791  0.03278855  1 0.076436
  H  H17  1  0.36407429  0.94959655  0.21952487  1 0.109887
  H  H18  1  0.21910603  0.89746161  0.36408253  1 0.114198
  H  H19  1  0.18570600  0.98425916  0.20378937  1 0.097901
  H  H20  1  0.34149800  0.07839034  0.56760831  1 0.144069
  H  H21  1  0.38226037  0.98583152  0.76171772  1 0.120658
  H  H22  1  0.25928063  0.89329435  0.86078582  1 0.029668
  H  H23  1  0.23428718  0.98668840  0.69870623  1 0.098929
  H  H24  1  0.69875371  0.78142600  0.59307793  1 0.369077
  H  H25  1  0.78390729  0.61042427  0.82377899  1 0.122393
  H  H26  1  0.67942345  0.69269684  0.06956459  1 0.138165
  H  H27  1  0.62650619  0.68786955  0.63343007  1 0.109004
  H  H28  1  0.57910291  0.63727571  0.27102491  1 0.091878
  H  H29  1  0.57314224  0.54535534  0.33170845  1 0.098198
  H  H30  1  0.61124638  0.50363995  0.75374557  1 0.100395
  H  H31  1  0.66642976  0.50676964  0.18575355  1 0.125516
  H  H32  1  0.83606972  0.52830813  0.53279288  1 0.076456
  H  H33  1  0.86407761  0.44959719  0.71953243  1 0.109925
  H  H34  1  0.71910995  0.39746146  0.86408301  1 0.114231
  H  H35  1  0.68570897  0.48425866  0.70378914  1 0.097909
  H  H36  1  0.84150028  0.57839225  0.06761053  1 0.144137
  H  H37  1  0.88226388  0.48583345  0.26172131  1 0.120683
  H  H38  1  0.75928410  0.39329459  0.36079144  1 0.029596
  H  H39  1  0.73429086  0.48668857  0.19870825  1 0.098892
  H  H40  1  0.80124535  0.71857608  0.09308254  1 0.36911
  H  H41  1  0.71609464  0.88957693  0.32379124  1 0.122364
  H  H42  1  0.82057735  0.80730435  0.56956538  1 0.138196
  H  H43  1  0.87349487  0.81213250  0.13343036  1 0.109014
  H  H44  1  0.92089770  0.86272650  0.77102784  1 0.091929
  H  H45  1  0.92685785  0.95464694  0.83171091  1 0.09822
  H  H46  1  0.88875371  0.99636177  0.25375243  1 0.100412
  H  H47  1  0.83357089  0.99323127  0.68576187  1 0.12552
  H  H48  1  0.66393114  0.97169214  0.03280622  1 0.076397
  H  H49  1  0.63592410  0.05040385  0.21954620  1 0.109883
  H  H50  1  0.78089106  0.10253909  0.36409836  1 0.114239
  H  H51  1  0.81429210  0.01574181  0.20379756  1 0.097918
  H  H52  1  0.65850127  0.92160906  0.56762403  1 0.144067
  H  H53  1  0.61773804  0.01416799  0.76173418  1 0.120752
  H  H54  1  0.74071827  0.10670657  0.86080545  1 0.02961
  H  H55  1  0.76571052  0.01331205  0.69871711  1 0.098869
  H  H56  1  0.30124665  0.21857315  0.59308400  1 0.369131
  H  H57  1  0.21609575  0.38957561  0.82377854  1 0.122412
  H  H58  1  0.32057934  0.30730205  0.06956150  1 0.138106
  H  H59  1  0.37349508  0.31212986  0.63342028  1 0.109015
  H  H60  1  0.42089700  0.36272447  0.27101467  1 0.091862
  H  H61  1  0.42685644  0.45464526  0.33168722  1 0.098226
  H  H62  1  0.38875155  0.49636064  0.75372332  1 0.10041
  H  H63  1  0.33356858  0.49323055  0.18573737  1 0.125521
  H  H64  1  0.16393010  0.47169012  0.53277950  1 0.076443
  H  H65  1  0.13592219  0.55040121  0.71952136  1 0.109884
  H  H66  1  0.28088902  0.60253849  0.86407463  1 0.114196
  H  H67  1  0.31428962  0.51574136  0.70377124  1 0.097895
  H  H68  1  0.15850009  0.42160720  0.06759995  1 0.144072
  H  H69  1  0.11773559  0.51416576  0.26170844  1 0.120705
  H  H70  1  0.24071581  0.60670457  0.36077957  1 0.029654
  H  H71  1  0.26570829  0.51331019  0.19869160  1 0.098901
  H  H72  1  0.28142374  0.80124623  0.90694317  1 0.369128
  H  H73  1  0.11042351  0.71609673  0.67621244  1 0.122393
  H  H74  1  0.19269624  0.82057758  0.43044918  1 0.1381
  H  H75  1  0.18786845  0.87349478  0.86657930  1 0.109001
  H  H76  1  0.13727439  0.92089890  0.22897750  1 0.091904
  H  H77  1  0.04535454  0.92686007  0.16829111  1 0.098227
  H  H78  1  0.00363908  0.88875618  0.74625115  1 0.100431
  H  H79  1  0.00676871  0.83357369  0.31423634  1 0.125504
  H  H80  1  0.02831045  0.66393469  0.96719208  1 0.076422
  H  H81  1  0.94960031  0.63592443  0.78045324  1 0.109969
  H  H82  1  0.89746072  0.78088989  0.63590039  1 0.114222
  H  H83  1  0.98425773  0.81429383  0.79619335  1 0.097938
  H  H84  1  0.07839225  0.65850632  0.43237348  1 0.144016
  H  H85  1  0.98583593  0.61773954  0.23826465  1 0.120702
  H  H86  1  0.89329408  0.74071657  0.13919872  1 0.029588
  H  H87  1  0.98668782  0.76571349  0.30127605  1 0.098878
  H  H88  1  0.78142517  0.30124753  0.40694695  1 0.369154
  H  H89  1  0.61042380  0.21609273  0.17622301  1 0.122388
  H  H90  1  0.69269601  0.32057574  0.93044723  1 0.138199
  H  H91  1  0.68786933  0.37349240  0.36658363  1 0.109003
  H  H92  1  0.63727467  0.42089538  0.72898803  1 0.091887
  H  H93  1  0.54535402  0.42685512  0.66830590  1 0.098219
  H  H94  1  0.50363883  0.38875074  0.24626543  1 0.100395
  H  H95  1  0.50676803  0.33356805  0.81425311  1 0.125512
  H  H96  1  0.52830852  0.16392846  0.46721435  1 0.076471
  H  H97  1  0.44959734  0.13592125  0.28046890  1 0.109882
  H  H98  1  0.39746162  0.28088805  0.13591401  1 0.11419
  H  H99  1  0.48425945  0.31428838  0.29621259  1 0.0979
  H  H100  1  0.57839093  0.15849868  0.93239129  1 0.144123
  H  H101  1  0.48583229  0.11773483  0.73828128  1 0.120653
  H  H102  1  0.39329404  0.24071507  0.63921300  1 0.029665
  H  H103  1  0.48668894  0.26570798  0.80129354  1 0.098912
  H  H104  1  0.71857703  0.19875273  0.90693947  1 0.369114
  H  H105  1  0.88957752  0.28390437  0.67622550  1 0.122374
  H  H106  1  0.80730526  0.17942269  0.43045154  1 0.138148
  H  H107  1  0.81213198  0.12650583  0.86658807  1 0.109014
  H  H108  1  0.86272677  0.07910231  0.22898355  1 0.091887
  H  H109  1  0.95464678  0.07314099  0.16829385  1 0.098329
  H  H110  1  0.99636183  0.11124468  0.74625372  1 0.100359
  H  H111  1  0.99323218  0.16642744  0.31424458  1 0.125529
  H  H112  1  0.97169289  0.33606744  0.96721404  1 0.07645
  H  H113  1  0.05040351  0.36407579  0.78047106  1 0.109914
  H  H114  1  0.10254071  0.21910913  0.63591409  1 0.114213
  H  H115  1  0.01574298  0.18570762  0.79620649  1 0.097923
  H  H116  1  0.92161014  0.34149695  0.43239322  1 0.144102
  H  H117  1  0.01416849  0.38226154  0.23828261  1 0.120699
  H  H118  1  0.10670804  0.25928214  0.13921176  1 0.029588
  H  H119  1  0.01331358  0.23428774  0.30129130  1 0.098943
  H  H120  1  0.21857700  0.69875083  0.40694418  1 0.369124
  H  H121  1  0.38957598  0.78390534  0.17621660  1 0.122415
  H  H122  1  0.30730392  0.67942284  0.93043726  1 0.138165
  H  H123  1  0.31213114  0.62650594  0.36656746  1 0.108998
  H  H124  1  0.36272484  0.57910263  0.72897175  1 0.091878
  H  H125  1  0.45464563  0.57314281  0.66828933  1 0.0982
  H  H126  1  0.49636122  0.61124767  0.24625158  1 0.100398
  H  H127  1  0.49323151  0.66642991  0.81423714  1 0.125563
  H  H128  1  0.47169008  0.83606936  0.46720678  1 0.076467
  H  H129  1  0.55039936  0.86407949  0.28045792  1 0.109866
  H  H130  1  0.60254000  0.71911397  0.13589735  1 0.114184
  H  H131  1  0.51574252  0.68571024  0.29619531  1 0.097943
  H  H132  1  0.42160600  0.84149770  0.93238947  1 0.144106
  H  H133  1  0.51416230  0.88226561  0.73827752  1 0.120676
  H  H134  1  0.60670628  0.75928735  0.63919716  1 0.029665
  H  H135  1  0.51331229  0.73428973  0.80128010  1 0.098902
  C  C136  1  0.25522880  0.10741511  0.15894828  1 0.160621
  C  C137  1  0.20547194  0.12774117  0.80200124  1 0.15394
  C  C138  1  0.17776656  0.15222450  0.58796216  1 -0.188182
  C  C139  1  0.14801706  0.12478205  0.39436067  1 0.051269
  C  C140  1  0.12274469  0.14769585  0.15964544  1 -0.145977
  C  C141  1  0.09578966  0.11985821  0.96160160  1 -0.098177
  C  C142  1  0.09292640  0.06738384  0.99459265  1 -0.070239
  C  C143  1  0.11510565  0.04393997  0.23047581  1 -0.17701
  C  C144  1  0.14411545  0.07079700  0.43254541  1 0.060541
  C  C145  1  0.17133033  0.04667780  0.65746742  1 -0.199596
  C  C146  1  0.20454725  0.07427730  0.82640573  1 0.097941
  C  C147  1  0.26171485  0.01532078  0.12172275  1 0.17168
  C  C148  1  0.29403165  0.92204716  0.37646789  1 0.024294
  C  C149  1  0.31428129  0.01675922  0.23165155  1 -0.077249
  C  C150  1  0.33355538  0.96466881  0.35093885  1 -0.040046
  C  C151  1  0.24394918  0.92918967  0.33964374  1 -0.127219
  C  C152  1  0.22481068  0.97460966  0.19501860  1 -0.134713
  C  C153  1  0.31111327  0.86758877  0.40252946  1 0.56632
  C  C154  1  0.33503608  0.03974361  0.50447719  1 -0.164085
  C  C155  1  0.35408499  0.99594018  0.60232665  1 -0.065419
  C  C156  1  0.28479500  0.92575341  0.87269816  1 0.255629
  C  C157  1  0.25290349  0.97520285  0.90160922  1 -0.19034
  C  C158  1  0.75523090  0.60741554  0.65894703  1 0.160659
  C  C159  1  0.70547305  0.62774191  0.30200398  1 0.153848
  C  C160  1  0.67776755  0.65222393  0.08797196  1 -0.188101
  C  C161  1  0.64801857  0.62478210  0.89436927  1 0.051286
  C  C162  1  0.62274560  0.64769627  0.65965536  1 -0.146079
  C  C163  1  0.59579031  0.61985919  0.46160347  1 -0.098246
  C  C164  1  0.59292799  0.56738447  0.49459801  1 -0.069998
  C  C165  1  0.61510694  0.54394055  0.73047981  1 -0.177039
  C  C166  1  0.64411701  0.57079653  0.93254783  1 0.060493
  C  C167  1  0.67133249  0.54667750  0.15747258  1 -0.199507
  C  C168  1  0.70454928  0.57427782  0.32641284  1 0.097877
  C  C169  1  0.76171796  0.51532099  0.62172345  1 0.171637
  C  C170  1  0.79403475  0.42204703  0.87647142  1 0.024335
  C  C171  1  0.81428246  0.51675959  0.73165443  1 -0.077265
  C  C172  1  0.83355786  0.46466953  0.85094642  1 -0.040231
  C  C173  1  0.74395251  0.42919000  0.83964699  1 -0.127329
  C  C174  1  0.72481355  0.47460952  0.69501276  1 -0.134711
  C  C175  1  0.81112001  0.36758822  0.90253302  1 0.56654
  C  C176  1  0.83503883  0.53974473  0.00448483  1 -0.164123
  C  C177  1  0.85408810  0.49594167  0.10233582  1 -0.065373
  C  C178  1  0.78479930  0.42575405  0.37270484  1 0.255609
  C  C179  1  0.75290680  0.47520299  0.40161157  1 -0.190249
  C  C180  1  0.74477056  0.89258552  0.15895276  1 0.160689
  C  C181  1  0.79452786  0.87225979  0.80200527  1 0.153934
  C  C182  1  0.82223329  0.84777741  0.58797324  1 -0.188167
  C  C183  1  0.85198261  0.87521956  0.39436995  1 0.051236
  C  C184  1  0.87725523  0.85230597  0.15965706  1 -0.145979
  C  C185  1  0.90421037  0.88014314  0.96160597  1 -0.098302
  C  C186  1  0.90707225  0.93261758  0.99460078  1 -0.070166
  C  C187  1  0.88489323  0.95606137  0.23048476  1 -0.17702
  C  C188  1  0.85588347  0.92920513  0.43255621  1 0.060537
  C  C189  1  0.82866811  0.95332380  0.65747889  1 -0.199472
  C  C190  1  0.79545172  0.92572353  0.82642026  1 0.097875
  C  C191  1  0.73828376  0.98467962  0.12173475  1 0.171683
  C  C192  1  0.70596688  0.07795318  0.37648826  1 0.024148
  C  C193  1  0.68571874  0.98324079  0.23166791  1 -0.077172
  C  C194  1  0.66644276  0.03533046  0.35095493  1 -0.040092
  C  C195  1  0.75604924  0.07081020  0.33965884  1 -0.127227
  C  C196  1  0.77518767  0.02539138  0.19502435  1 -0.134821
  C  C197  1  0.68887595  0.13241251  0.40253841  1 0.566497
  C  C198  1  0.66496267  0.96025574  0.50449516  1 -0.164105
  C  C199  1  0.64591336  0.00405963  0.60234788  1 -0.065455
  C  C200  1  0.71520190  0.07424746  0.87271648  1 0.255757
  C  C201  1  0.74709436  0.02479789  0.90162274  1 -0.190248
  C  C202  1  0.24477049  0.39258444  0.65893987  1 0.1606
  C  C203  1  0.29452851  0.37225849  0.30199792  1 0.153995
  C  C204  1  0.32223419  0.34777555  0.08796626  1 -0.188221
  C  C205  1  0.35198253  0.37521757  0.89435916  1 0.051363
  C  C206  1  0.37725521  0.35230364  0.65964726  1 -0.146123
  C  C207  1  0.40420940  0.38014083  0.46159363  1 -0.09819
  C  C208  1  0.40707116  0.43261605  0.49458369  1 -0.070113
  C  C209  1  0.38489079  0.45605960  0.73046066  1 -0.176979
  C  C210  1  0.35588236  0.42920321  0.93253738  1 0.060531
  C  C211  1  0.32866703  0.45332248  0.15745853  1 -0.199664
  C  C212  1  0.29545001  0.42572274  0.32639778  1 0.097938
  C  C213  1  0.23828176  0.48467865  0.62171199  1 0.171657
  C  C214  1  0.20596479  0.57795177  0.87646715  1 0.024336
  C  C215  1  0.18571633  0.48323888  0.73164354  1 -0.077361
  C  C216  1  0.16644094  0.53532950  0.85093145  1 -0.040105
  C  C217  1  0.25604714  0.57080919  0.83963532  1 -0.127201
  C  C218  1  0.27518543  0.52539042  0.69500263  1 -0.13463
  C  C219  1  0.18887417  0.63241211  0.90251774  1 0.566619
  C  C220  1  0.16496137  0.46025401  0.00447186  1 -0.164042
  C  C221  1  0.14591128  0.50405811  0.10232093  1 -0.065459
  C  C222  1  0.21519908  0.57424570  0.37269293  1 0.255524
  C  C223  1  0.24709275  0.52479633  0.40159661  1 -0.190356
  C  C224  1  0.10741516  0.74477184  0.84104989  1 0.160597
  C  C225  1  0.12774050  0.79452874  0.19800228  1 0.153894
  C  C226  1  0.15222331  0.82223316  0.41203480  1 -0.188166
  C  C227  1  0.12478114  0.85198360  0.60563754  1 0.051332
  C  C228  1  0.14769475  0.87725637  0.84034974  1 -0.146023
  C  C229  1  0.11985780  0.90421160  0.03839780  1 -0.098216
  C  C230  1  0.06738374  0.90707410  0.00540291  1 -0.070128
  C  C231  1  0.04393949  0.88489552  0.76952205  1 -0.177013
  C  C232  1  0.07079567  0.85588445  0.56744691  1 0.060478
  C  C233  1  0.04667678  0.82867016  0.34252458  1 -0.199574
  C  C234  1  0.07427667  0.79545342  0.17358511  1 0.09788
  C  C235  1  0.01532086  0.73828607  0.87826049  1 0.171817
  C  C236  1  0.92204863  0.70596644  0.62351426  1 0.024212
  C  C237  1  0.01676110  0.68572010  0.76832817  1 -0.07727
  C  C238  1  0.96467063  0.66644392  0.64904468  1 -0.040262
  C  C239  1  0.92919099  0.75604843  0.66033763  1 -0.127277
  C  C240  1  0.97460858  0.77518955  0.80496993  1 -0.13494
  C  C241  1  0.86758798  0.68887243  0.59748041  1 0.566569
  C  C242  1  0.03974546  0.66496712  0.49550183  1 -0.163968
  C  C243  1  0.99594276  0.64591612  0.39765365  1 -0.065386
  C  C244  1  0.92575446  0.71520176  0.12728487  1 0.25582
  C  C245  1  0.97520302  0.74709608  0.09837850  1 -0.190297
  C  C246  1  0.60741597  0.24476764  0.34106378  1 0.160587
  C  C247  1  0.62774083  0.29452508  0.69800517  1 0.153832
  C  C248  1  0.65222315  0.32223077  0.91203796  1 -0.188257
  C  C249  1  0.62478098  0.35197963  0.10564120  1 0.051392
  C  C250  1  0.64769554  0.37725194  0.34035416  1 -0.146091
  C  C251  1  0.61985849  0.40420760  0.53840541  1 -0.098265
  C  C252  1  0.56738363  0.40706982  0.50541348  1 -0.070078
  C  C253  1  0.54393944  0.38488986  0.26953505  1 -0.176951
  C  C254  1  0.57079588  0.35588046  0.06745898  1 0.060346
  C  C255  1  0.54667651  0.32866544  0.84253396  1 -0.199551
  C  C256  1  0.57427701  0.29544824  0.67359533  1 0.097976
  C  C257  1  0.51532055  0.23828065  0.37827999  1 0.171577
  C  C258  1  0.42204635  0.20596333  0.12353055  1 0.024396
  C  C259  1  0.51675939  0.18571578  0.26835207  1 -0.077281
  C  C260  1  0.46466923  0.16643984  0.14905979  1 -0.040109
  C  C261  1  0.42919075  0.25604507  0.16035277  1 -0.127234
  C  C262  1  0.47460903  0.27518497  0.30499063  1 -0.134635
  C  C263  1  0.36758634  0.18886810  0.09749796  1 0.566401
  C  C264  1  0.53974383  0.16496066  0.99551673  1 -0.164174
  C  C265  1  0.49594119  0.14591064  0.89766808  1 -0.065398
  C  C266  1  0.42575429  0.21519811  0.62729929  1 0.255581
  C  C267  1  0.47520289  0.24709245  0.59839271  1 -0.190412
  C  C268  1  0.89258617  0.25522883  0.84106206  1 0.1607
  C  C269  1  0.87225990  0.20547240  0.19800575  1 0.154029
  C  C270  1  0.84777763  0.17776735  0.41204132  1 -0.188275
  C  C271  1  0.87521974  0.14801775  0.60564140  1 0.051429
  C  C272  1  0.85230584  0.12274519  0.84035521  1 -0.146112
  C  C273  1  0.88014308  0.09578965  0.03840265  1 -0.098186
  C  C274  1  0.93261758  0.09292687  0.00540692  1 -0.07032
  C  C275  1  0.95606144  0.11510595  0.76952471  1 -0.176871
  C  C276  1  0.92920509  0.14411601  0.56745426  1 0.060456
  C  C277  1  0.95332397  0.17133090  0.34252833  1 -0.199604
  C  C278  1  0.92572426  0.20454766  0.17359200  1 0.097862
  C  C279  1  0.98468110  0.26171562  0.87827673  1 0.17185
  C  C280  1  0.07795413  0.29403324  0.62352912  1 0.024265
  C  C281  1  0.98324175  0.31427981  0.76835165  1 -0.077386
  C  C282  1  0.03533163  0.33355651  0.64906050  1 -0.039999
  C  C283  1  0.07081090  0.24395173  0.66035067  1 -0.127322
  C  C284  1  0.02539238  0.22481144  0.80498766  1 -0.134814
  C  C285  1  0.13241378  0.31112694  0.59749024  1 0.566508
  C  C286  1  0.96025695  0.33503539  0.49551780  1 -0.164051
  C  C287  1  0.00406001  0.35408619  0.39766860  1 -0.065523
  C  C288  1  0.07424682  0.28479766  0.12729617  1 0.255806
  C  C289  1  0.02479837  0.25290414  0.09838894  1 -0.190362
  C  C290  1  0.39258431  0.75523023  0.34105308  1 0.160634
  C  C291  1  0.37225999  0.70547340  0.69799719  1 0.1539
  C  C292  1  0.34777648  0.67776738  0.91202902  1 -0.188104
  C  C293  1  0.37521897  0.64801824  0.10563111  1 0.051287
  C  C294  1  0.35230464  0.62274558  0.34034109  1 -0.145967
  C  C295  1  0.38014156  0.59579065  0.53839201  1 -0.098361
  C  C296  1  0.43261602  0.59292871  0.50539898  1 -0.070053
  C  C297  1  0.45606066  0.61510828  0.26951831  1 -0.177027
  C  C298  1  0.42920407  0.64411802  0.06744444  1 0.060475
  C  C299  1  0.45332376  0.67133286  0.84252579  1 -0.199591
  C  C300  1  0.42572388  0.70454969  0.67358607  1 0.09786
  C  C301  1  0.48467918  0.76171791  0.37826936  1 0.171668
  C  C302  1  0.57795181  0.79403782  0.12351799  1 0.02424
  C  C303  1  0.48323823  0.81428318  0.26833705  1 -0.077363
  C  C304  1  0.53532872  0.83356075  0.14905364  1 -0.040057
  C  C305  1  0.57080935  0.74395570  0.16034137  1 -0.127138
  C  C306  1  0.52539148  0.72481425  0.30497110  1 -0.134848
  C  C307  1  0.63241310  0.81113569  0.09749147  1 0.566586
  C  C308  1  0.46025341  0.83503690  0.99551223  1 -0.164065
  C  C309  1  0.50405685  0.85408824  0.89766095  1 -0.065414
  C  C310  1  0.57424566  0.78480342  0.62728948  1 0.255554
  C  C311  1  0.52479724  0.75290746  0.59838163  1 -0.19033
  N  N312  1  0.23661375  0.14648612  0.01461784  1 -0.330653
  N  N313  1  0.23836375  0.06309116  0.05057521  1 -0.053733
  N  N314  1  0.73661527  0.64648669  0.51461484  1 -0.330588
  N  N315  1  0.73836615  0.56309077  0.55057488  1 -0.05378
  N  N316  1  0.76338565  0.85351478  0.01462021  1 -0.330751
  N  N317  1  0.76163510  0.93690982  0.05058288  1 -0.053747
  N  N318  1  0.26338653  0.35351355  0.51461763  1 -0.33063
  N  N319  1  0.26163412  0.43690893  0.55056660  1 -0.053718
  N  N320  1  0.14648555  0.76338629  0.98538647  1 -0.330599
  N  N321  1  0.06309058  0.76163799  0.94941323  1 -0.053712
  N  N322  1  0.64648670  0.26338326  0.48539297  1 -0.330527
  N  N323  1  0.56309047  0.26163258  0.44942943  1 -0.053626
  N  N324  1  0.85351467  0.23661405  0.98539769  1 -0.330703
  N  N325  1  0.93691185  0.23836349  0.94942793  1 -0.053787
  N  N326  1  0.35351389  0.73661444  0.48537974  1 -0.330658
  N  N327  1  0.43690973  0.73836471  0.44941564  1 -0.053622
  O  O328  1  0.23320321  0.28036658  0.02128258  1 -0.844836
  O  O329  1  0.27699926  0.83742335  0.50882247  1 -0.59351
  O  O330  1  0.33081976  0.91892875  0.85957413  1 -0.368777
  O  O331  1  0.35247880  0.85517660  0.31043349  1 -0.490724
  O  O332  1  0.73320182  0.78036614  0.52127258  1 -0.844857
  O  O333  1  0.77700108  0.33742394  0.00882792  1 -0.593637
  O  O334  1  0.83082222  0.41892915  0.35957488  1 -0.368707
  O  O335  1  0.85248133  0.35517884  0.81047995  1 -0.490702
  O  O336  1  0.76679717  0.71963521  0.02127126  1 -0.844872
  O  O337  1  0.72300265  0.16257530  0.50883495  1 -0.593803
  O  O338  1  0.66917973  0.08107191  0.85959527  1 -0.368812
  O  O339  1  0.64752511  0.14481905  0.31052705  1 -0.490432
  O  O340  1  0.26679828  0.21963406  0.52128150  1 -0.844924
  O  O341  1  0.22300051  0.66257459  0.00881638  1 -0.593847
  O  O342  1  0.16917778  0.58106950  0.35957515  1 -0.36868
  O  O343  1  0.14752384  0.64481905  0.81049651  1 -0.490558
  O  O344  1  0.28036562  0.76679699  0.97873760  1 -0.844896
  O  O345  1  0.83742444  0.72299926  0.49117024  1 -0.593841
  O  O346  1  0.91893103  0.66918057  0.14041728  1 -0.368824
  O  O347  1  0.85518388  0.64752693  0.68951131  1 -0.490409
  O  O348  1  0.78036720  0.26679851  0.47874331  1 -0.844964
  O  O349  1  0.33742525  0.22299851  0.99118579  1 -0.593759
  O  O350  1  0.41892889  0.16917845  0.64042728  1 -0.368727
  O  O351  1  0.35518145  0.14752524  0.18950488  1 -0.490328
  O  O352  1  0.71963542  0.23320105  0.97874363  1 -0.844889
  O  O353  1  0.16257695  0.27699982  0.49118242  1 -0.593777
  O  O354  1  0.08107233  0.33081893  0.14042650  1 -0.368859
  O  O355  1  0.14481776  0.35247365  0.68951091  1 -0.490422
  O  O356  1  0.21963457  0.73319932  0.47874121  1 -0.844942
  O  O357  1  0.66257489  0.77700484  0.99117435  1 -0.593914
  O  O358  1  0.58106781  0.83082348  0.64041490  1 -0.368712
  O  O359  1  0.64481666  0.85247591  0.18950271  1 -0.490386
