# generated using pymatgen
data_ZnH12C18(NO2)2
_symmetry_space_group_name_H-M   'P 1'
_cell_length_a   26.38905951
_cell_length_b   26.38907481
_cell_length_c   4.41715465
_cell_angle_alpha   89.99999638
_cell_angle_beta   89.99997080
_cell_angle_gamma   89.99997336
_symmetry_Int_Tables_number   1
_chemical_formula_structural   ZnH12C18(NO2)2
_chemical_formula_sum   'Zn8 H96 C144 N16 O32'
_cell_volume   3076.03081318
_cell_formula_units_Z   8
loop_
 _symmetry_equiv_pos_site_id
 _symmetry_equiv_pos_as_xyz
  1  'x, y, z'
loop_
 _atom_site_type_symbol
 _atom_site_label
 _atom_site_symmetry_multiplicity
 _atom_site_fract_x
 _atom_site_fract_y
 _atom_site_fract_z
 _atom_site_occupancy
 _atom_site_charge
  Zn  Zn0  1  0.26341114  0.21312822  0.10972285  1 0.881937
  Zn  Zn1  1  0.73658919  0.78687096  0.10971220  1 0.881941
  Zn  Zn2  1  0.71312854  0.23658821  0.39030857  1 0.882018
  Zn  Zn3  1  0.28687108  0.76341179  0.39029841  1 0.882016
  Zn  Zn4  1  0.76341197  0.71312858  0.60971539  1 0.882006
  Zn  Zn5  1  0.23658927  0.28687087  0.60972019  1 0.88201
  Zn  Zn6  1  0.21312877  0.73658844  0.89029631  1 0.881975
  Zn  Zn7  1  0.78687100  0.26341160  0.89029766  1 0.882029
  H  H8  1  0.27694520  0.10416926  0.37598535  1 0.116986
  H  H9  1  0.17051951  0.19959916  0.63807962  1 0.139899
  H  H10  1  0.11944398  0.19956813  0.17270091  1 0.112792
  H  H11  1  0.06919071  0.15339862  0.79036054  1 0.096868
  H  H12  1  0.06097196  0.05952081  0.82198307  1 0.095642
  H  H13  1  0.09870571  0.01216408  0.24765551  1 0.102099
  H  H14  1  0.15051590  0.01064098  0.71042024  1 0.124584
  H  H15  1  0.25527965  0.91749725  0.64059992  1 0.09761
  H  H16  1  0.34378635  0.93727909  0.83727535  1 0.118393
  H  H17  1  0.30240987  0.01999652  0.74527119  1 0.127648
  H  H18  1  0.21404433  0.99900731  0.54665819  1 0.094828
  H  H19  1  0.30217312  0.21941163  0.60099209  1 0.369375
  H  H20  1  0.72305471  0.89583006  0.37598534  1 0.11697
  H  H21  1  0.82948069  0.80040139  0.63807709  1 0.139854
  H  H22  1  0.88055676  0.80043283  0.17269965  1 0.112793
  H  H23  1  0.93080957  0.84660288  0.79035970  1 0.0969
  H  H24  1  0.93902772  0.94048080  0.82198502  1 0.095601
  H  H25  1  0.90129372  0.98783695  0.24765879  1 0.102081
  H  H26  1  0.84948335  0.98935954  0.71042145  1 0.124548
  H  H27  1  0.74471930  0.08250313  0.64059592  1 0.097572
  H  H28  1  0.65621345  0.06272012  0.83727000  1 0.118398
  H  H29  1  0.69759015  0.98000260  0.74527070  1 0.127636
  H  H30  1  0.78595454  0.00099298  0.54666180  1 0.094845
  H  H31  1  0.69782788  0.78058715  0.60096773  1 0.369458
  H  H32  1  0.60416966  0.22305461  0.12401496  1 0.116983
  H  H33  1  0.69959834  0.32948066  0.86192249  1 0.139849
  H  H34  1  0.69956689  0.38055651  0.32729780  1 0.112805
  H  H35  1  0.65339703  0.43080952  0.70963876  1 0.096897
  H  H36  1  0.55951906  0.43902789  0.67801504  1 0.095626
  H  H37  1  0.51216278  0.40129414  0.25234127  1 0.10209
  H  H38  1  0.51064012  0.34948400  0.78957567  1 0.124517
  H  H39  1  0.41749768  0.24471994  0.85939367  1 0.097626
  H  H40  1  0.43727899  0.15621315  0.66271511  1 0.118428
  H  H41  1  0.51999629  0.19758949  0.75472321  1 0.127618
  H  H42  1  0.49900744  0.28595562  0.95334026  1 0.094811
  H  H43  1  0.71941271  0.19782758  0.89906646  1 0.369421
  H  H44  1  0.39583014  0.77694532  0.12401660  1 0.117005
  H  H45  1  0.30040118  0.67051945  0.86192380  1 0.139836
  H  H46  1  0.30043256  0.61944347  0.32730133  1 0.112767
  H  H47  1  0.34660264  0.56919046  0.70963993  1 0.096921
  H  H48  1  0.44048061  0.56097191  0.67801547  1 0.095658
  H  H49  1  0.48783677  0.59870587  0.25234137  1 0.102106
  H  H50  1  0.48935934  0.65051586  0.78957688  1 0.124543
  H  H51  1  0.58250249  0.75527924  0.85939633  1 0.09762
  H  H52  1  0.56272108  0.84378598  0.66272092  1 0.11841
  H  H53  1  0.48000362  0.80240959  0.75472588  1 0.127666
  H  H54  1  0.50099238  0.71404418  0.95333896  1 0.09489
  H  H55  1  0.28058750  0.80217255  0.89904665  1 0.369441
  H  H56  1  0.77694563  0.60416959  0.87598440  1 0.116981
  H  H57  1  0.67052005  0.69959897  0.13807674  1 0.13991
  H  H58  1  0.61944429  0.69956774  0.67269963  1 0.112816
  H  H59  1  0.56919091  0.65339800  0.29036038  1 0.096878
  H  H60  1  0.56097214  0.55952018  0.32198454  1 0.095627
  H  H61  1  0.59870578  0.51216377  0.74765815  1 0.102085
  H  H62  1  0.65051593  0.51064089  0.21042350  1 0.124569
  H  H63  1  0.75527957  0.41749735  0.14060107  1 0.09759
  H  H64  1  0.84378618  0.43727910  0.33727795  1 0.118408
  H  H65  1  0.80240985  0.51999656  0.24527322  1 0.127647
  H  H66  1  0.71404422  0.49900736  0.04665839  1 0.094824
  H  H67  1  0.80217374  0.71941194  0.10097849  1 0.36939
  H  H68  1  0.22305480  0.39583026  0.87598732  1 0.117006
  H  H69  1  0.32948096  0.30040095  0.13808221  1 0.139894
  H  H70  1  0.38055670  0.30043220  0.67270384  1 0.112786
  H  H71  1  0.43080943  0.34660208  0.29036272  1 0.096862
  H  H72  1  0.43902765  0.44047996  0.32198485  1 0.095625
  H  H73  1  0.40129387  0.48783644  0.74765806  1 0.10209
  H  H74  1  0.34948389  0.48935934  0.21042313  1 0.12456
  H  H75  1  0.24472013  0.58250263  0.14060275  1 0.097592
  H  H76  1  0.15621377  0.56272064  0.33727986  1 0.118415
  H  H77  1  0.19759002  0.48000333  0.24527607  1 0.12767
  H  H78  1  0.28595535  0.50099263  0.04666124  1 0.094829
  H  H79  1  0.19782776  0.28058768  0.10097532  1 0.369443
  H  H80  1  0.10416974  0.72305500  0.62401754  1 0.11702
  H  H81  1  0.19959879  0.82948074  0.36192488  1 0.139822
  H  H82  1  0.19956759  0.88055667  0.82730312  1 0.112814
  H  H83  1  0.15339759  0.93080979  0.20964209  1 0.096885
  H  H84  1  0.05951970  0.93902847  0.17801686  1 0.095611
  H  H85  1  0.01216351  0.90129481  0.75234239  1 0.102076
  H  H86  1  0.01064086  0.84948471  0.28957890  1 0.124571
  H  H87  1  0.91749790  0.74472067  0.35939394  1 0.097606
  H  H88  1  0.93727944  0.65621341  0.16271623  1 0.118427
  H  H89  1  0.01999669  0.69759006  0.25472619  1 0.127659
  H  H90  1  0.99900774  0.78595655  0.45334286  1 0.094868
  H  H91  1  0.21941221  0.69782764  0.39903823  1 0.369431
  H  H92  1  0.89583023  0.27694560  0.62401579  1 0.116971
  H  H93  1  0.80040115  0.17051965  0.36192190  1 0.139884
  H  H94  1  0.80043253  0.11944352  0.82729950  1 0.112782
  H  H95  1  0.84660264  0.06919073  0.20963906  1 0.096886
  H  H96  1  0.94048062  0.06097228  0.17801562  1 0.095631
  H  H97  1  0.98783678  0.09870619  0.75234136  1 0.102101
  H  H98  1  0.98935945  0.15051622  0.28957703  1 0.124547
  H  H99  1  0.08250272  0.25527971  0.35939692  1 0.097574
  H  H100  1  0.06272113  0.34378615  0.16272175  1 0.11841
  H  H101  1  0.98000349  0.30240995  0.25472582  1 0.12767
  H  H102  1  0.00099250  0.21404461  0.45333782  1 0.094823
  H  H103  1  0.78058732  0.30217259  0.39903724  1 0.369438
  C  C104  1  0.24625631  0.10443991  0.21204571  1 0.149417
  C  C105  1  0.19679855  0.13055397  0.84876801  1 0.149507
  C  C106  1  0.16902393  0.15834476  0.63894402  1 -0.171365
  C  C107  1  0.13844653  0.13302228  0.42916180  1 0.05056
  C  C108  1  0.11376015  0.15890213  0.19401622  1 -0.158764
  C  C109  1  0.08583462  0.13318676  0.98020922  1 -0.0846
  C  C110  1  0.08116142  0.07971865  0.99928183  1 -0.062538
  C  C111  1  0.10251808  0.05316278  0.23679055  1 -0.185388
  C  C112  1  0.13235444  0.07794068  0.45233330  1 0.05663
  C  C113  1  0.15773320  0.05103939  0.68285169  1 -0.188557
  C  C114  1  0.19312141  0.07641411  0.85975600  1 0.083996
  C  C115  1  0.26590723  0.93971081  0.44401052  1 -0.055125
  C  C116  1  0.30307509  0.92187336  0.24563188  1 -0.063689
  C  C117  1  0.31572876  0.95120312  0.99804986  1 -0.071195
  C  C118  1  0.28948866  0.99630971  0.93117040  1 -0.120762
  C  C119  1  0.25041743  0.01228958  0.12542096  1 0.132057
  C  C120  1  0.23991353  0.98415169  0.37993011  1 -0.165797
  C  C121  1  0.32235060  0.86894421  0.29693465  1 0.541088
  C  C122  1  0.75374353  0.89555949  0.21204600  1 0.149351
  C  C123  1  0.80320153  0.86944603  0.84876765  1 0.149564
  C  C124  1  0.83097636  0.84165586  0.63894253  1 -0.171364
  C  C125  1  0.86155365  0.86697855  0.42916129  1 0.05063
  C  C126  1  0.88624011  0.84109893  0.19401522  1 -0.158838
  C  C127  1  0.91416558  0.86681457  0.98020841  1 -0.084687
  C  C128  1  0.91883844  0.92028271  0.99928282  1 -0.062484
  C  C129  1  0.89748150  0.94683831  0.23679192  1 -0.185296
  C  C130  1  0.86764535  0.92206019  0.45233463  1 0.056627
  C  C131  1  0.84226647  0.94896102  0.68285433  1 -0.188599
  C  C132  1  0.80687838  0.92358596  0.85975764  1 0.083976
  C  C133  1  0.73409187  0.06028911  0.44400796  1 -0.055096
  C  C134  1  0.69692418  0.07812628  0.24562761  1 -0.063575
  C  C135  1  0.68427079  0.04879614  0.99804702  1 -0.071272
  C  C136  1  0.71051090  0.00368957  0.93116950  1 -0.120761
  C  C137  1  0.74958191  0.98770994  0.12542330  1 0.132016
  C  C138  1  0.76008561  0.01584828  0.37993003  1 -0.165778
  C  C139  1  0.67764883  0.13105575  0.29692798  1 0.54097
  C  C140  1  0.60443994  0.25374354  0.28795482  1 0.149407
  C  C141  1  0.63055339  0.30320157  0.65123243  1 0.149592
  C  C142  1  0.65834387  0.33097654  0.86105571  1 -0.171351
  C  C143  1  0.63302104  0.36155360  0.07083745  1 0.050697
  C  C144  1  0.65890081  0.38624001  0.30598422  1 -0.158829
  C  C145  1  0.63318523  0.41416546  0.51979034  1 -0.084726
  C  C146  1  0.57971711  0.41883852  0.50071747  1 -0.06247
  C  C147  1  0.55316146  0.39748174  0.26320711  1 -0.185276
  C  C148  1  0.57793942  0.36764556  0.04766440  1 0.056498
  C  C149  1  0.55103861  0.34226681  0.81714462  1 -0.188389
  C  C150  1  0.57641342  0.30687852  0.64024202  1 0.083884
  C  C151  1  0.43971132  0.23409206  0.05598054  1 -0.055193
  C  C152  1  0.42187334  0.19692451  0.25436101  1 -0.063614
  C  C153  1  0.45120294  0.18427069  0.50194096  1 -0.071299
  C  C154  1  0.49630970  0.21051064  0.56882412  1 -0.120706
  C  C155  1  0.51228935  0.24958208  0.37457483  1 0.132046
  C  C156  1  0.48415191  0.26008578  0.12006597  1 -0.165713
  C  C157  1  0.36894418  0.17764903  0.20305443  1 0.541242
  C  C158  1  0.39555964  0.74625618  0.28795551  1 0.149349
  C  C159  1  0.36944607  0.69679839  0.65123294  1 0.14958
  C  C160  1  0.34165563  0.66902356  0.86105856  1 -0.17132
  C  C161  1  0.36697843  0.63844628  0.07083914  1 0.050621
  C  C162  1  0.34109856  0.61375987  0.30598488  1 -0.158746
  C  C163  1  0.36681437  0.58583441  0.51979201  1 -0.084661
  C  C164  1  0.42028243  0.58116147  0.50071792  1 -0.06254
  C  C165  1  0.44683816  0.60251809  0.26320835  1 -0.185367
  C  C166  1  0.42206002  0.63235433  0.04766590  1 0.056546
  C  C167  1  0.44896100  0.65773305  0.81714594  1 -0.188511
  C  C168  1  0.42358605  0.69312127  0.64024172  1 0.083935
  C  C169  1  0.56028907  0.76590681  0.05598369  1 -0.055148
  C  C170  1  0.57812669  0.80307459  0.25436439  1 -0.063677
  C  C171  1  0.54879720  0.81572836  0.50194439  1 -0.07121
  C  C172  1  0.50369039  0.78948867  0.56882752  1 -0.120766
  C  C173  1  0.48771038  0.75041754  0.37457399  1 0.132025
  C  C174  1  0.51584806  0.73991337  0.12006732  1 -0.165825
  C  C175  1  0.63105584  0.82235003  0.20305840  1 0.541151
  C  C176  1  0.74625660  0.60444016  0.71204540  1 0.149396
  C  C177  1  0.69679886  0.63055395  0.34876779  1 0.149459
  C  C178  1  0.66902420  0.65834460  0.13894301  1 -0.171335
  C  C179  1  0.63844680  0.63302191  0.92916175  1 0.050507
  C  C180  1  0.61376059  0.65890174  0.69401526  1 -0.158754
  C  C181  1  0.58583480  0.63318630  0.48020942  1 -0.084672
  C  C182  1  0.58116157  0.57971822  0.49928305  1 -0.062509
  C  C183  1  0.60251815  0.55316245  0.73679291  1 -0.185268
  C  C184  1  0.63235461  0.57794031  0.95233450  1 0.056527
  C  C185  1  0.65773325  0.55103930  0.18285465  1 -0.188481
  C  C186  1  0.69312155  0.57641409  0.35975792  1 0.083881
  C  C187  1  0.76590710  0.43971109  0.94401313  1 -0.055105
  C  C188  1  0.80307480  0.42187358  0.74563345  1 -0.063651
  C  C189  1  0.81572863  0.45120298  0.49805194  1 -0.071185
  C  C190  1  0.78948863  0.49630975  0.43117051  1 -0.120761
  C  C191  1  0.75041762  0.51228963  0.62542293  1 0.132089
  C  C192  1  0.73991361  0.48415192  0.87993082  1 -0.165835
  C  C193  1  0.82235023  0.36894437  0.79693880  1 0.541031
  C  C194  1  0.25374372  0.39555974  0.71204786  1 0.149341
  C  C195  1  0.30320166  0.36944593  0.34877026  1 0.149584
  C  C196  1  0.33097649  0.34165539  0.13894672  1 -0.171317
  C  C197  1  0.36155368  0.36697801  0.92916460  1 0.050483
  C  C198  1  0.38624009  0.34109822  0.69401861  1 -0.15864
  C  C199  1  0.41416545  0.36681379  0.48021110  1 -0.084716
  C  C200  1  0.41883833  0.42028197  0.49928292  1 -0.062487
  C  C201  1  0.39748175  0.44683766  0.73679271  1 -0.185341
  C  C202  1  0.36764548  0.42205981  0.95233595  1 0.056597
  C  C203  1  0.34226671  0.44896078  0.18285552  1 -0.188505
  C  C204  1  0.30687848  0.42358600  0.35975906  1 0.08388
  C  C205  1  0.23409261  0.56028899  0.94401471  1 -0.05512
  C  C206  1  0.19692481  0.57812658  0.74563441  1 -0.063704
  C  C207  1  0.18427124  0.54879688  0.49805483  1 -0.07119
  C  C208  1  0.21051120  0.50368999  0.43117331  1 -0.120813
  C  C209  1  0.24958217  0.48771013  0.62542648  1 0.132054
  C  C210  1  0.26008600  0.51584817  0.87993281  1 -0.165749
  C  C211  1  0.17764918  0.63105567  0.79693815  1 0.541128
  C  C212  1  0.10444015  0.75374385  0.78795697  1 0.149386
  C  C213  1  0.13055390  0.80320187  0.15123449  1 0.149574
  C  C214  1  0.15834436  0.83097655  0.36105962  1 -0.171302
  C  C215  1  0.13302182  0.86155395  0.57084086  1 0.050601
  C  C216  1  0.15890152  0.88624033  0.80598726  1 -0.15881
  C  C217  1  0.13318591  0.91416573  0.01979384  1 -0.084618
  C  C218  1  0.07971778  0.91883897  0.00071996  1 -0.062528
  C  C219  1  0.05316212  0.89748238  0.76320911  1 -0.185343
  C  C220  1  0.07794016  0.86764608  0.54766718  1 0.056585
  C  C221  1  0.05103915  0.84226736  0.31714796  1 -0.18853
  C  C222  1  0.07641395  0.80687917  0.14024432  1 0.083959
  C  C223  1  0.93971170  0.73409264  0.55598248  1 -0.055103
  C  C224  1  0.92187403  0.69692486  0.75436114  1 -0.063642
  C  C225  1  0.95120363  0.68427102  0.00194393  1 -0.071266
  C  C226  1  0.99630997  0.71051136  0.06882720  1 -0.120758
  C  C227  1  0.01228960  0.74958291  0.87457856  1 0.132008
  C  C228  1  0.98415213  0.76008665  0.62006762  1 -0.165785
  C  C229  1  0.86894518  0.67764907  0.70305659  1 0.541181
  C  C230  1  0.89555959  0.24625650  0.78795501  1 0.14939
  C  C231  1  0.86944620  0.19679876  0.15123215  1 0.149526
  C  C232  1  0.84165558  0.16902382  0.36105725  1 -0.171365
  C  C233  1  0.86697843  0.13844657  0.57083813  1 0.050644
  C  C234  1  0.84109854  0.11376005  0.80598316  1 -0.158791
  C  C235  1  0.86681437  0.08583470  0.01979093  1 -0.084617
  C  C236  1  0.92028245  0.08116177  0.00071739  1 -0.062579
  C  C237  1  0.94683818  0.10251854  0.76320870  1 -0.185318
  C  C238  1  0.92206003  0.13235472  0.54766614  1 0.056545
  C  C239  1  0.94896104  0.15773334  0.31714554  1 -0.188508
  C  C240  1  0.92358606  0.19312161  0.14024109  1 0.083878
  C  C241  1  0.06028924  0.26590705  0.55598500  1 -0.055115
  C  C242  1  0.07812672  0.30307484  0.75436613  1 -0.0637
  C  C243  1  0.04879719  0.31572863  0.00194571  1 -0.071184
  C  C244  1  0.00369028  0.28948893  0.06882781  1 -0.120802
  C  C245  1  0.98771039  0.25041792  0.87457336  1 0.132071
  C  C246  1  0.01584809  0.23991371  0.62006707  1 -0.165772
  C  C247  1  0.13105594  0.32235019  0.70306113  1 0.54116
  N  N248  1  0.22924234  0.14602728  0.07445921  1 -0.32221
  N  N249  1  0.22647030  0.06122626  0.08617890  1 -0.05567
  N  N250  1  0.77075768  0.85397234  0.07445798  1 -0.322188
  N  N251  1  0.77352937  0.93877342  0.08618088  1 -0.055557
  N  N252  1  0.64602719  0.27075755  0.42554296  1 -0.32231
  N  N253  1  0.56122595  0.27352946  0.41381918  1 -0.05569
  N  N254  1  0.35397241  0.72924229  0.42554408  1 -0.322268
  N  N255  1  0.43877374  0.72647028  0.41381925  1 -0.055621
  N  N256  1  0.72924288  0.64602751  0.57445687  1 -0.32223
  N  N257  1  0.72647056  0.56122640  0.58618031  1 -0.055582
  N  N258  1  0.27075776  0.35397235  0.57446090  1 -0.322307
  N  N259  1  0.27352949  0.43877357  0.58618215  1 -0.055569
  N  N260  1  0.14602745  0.77075787  0.92554425  1 -0.322294
  N  N261  1  0.06122634  0.77353005  0.91382193  1 -0.055635
  N  N262  1  0.85397242  0.22924265  0.92554387  1 -0.322213
  N  N263  1  0.93877368  0.22647061  0.91381839  1 -0.055563
  O  O264  1  0.28592484  0.83707220  0.35947296  1 -0.629187
  O  O265  1  0.36486187  0.85522726  0.10555645  1 -0.226896
  O  O266  1  0.26523334  0.21780674  0.61647993  1 -0.843924
  O  O267  1  0.37040088  0.86439779  0.45481991  1 -0.236274
  O  O268  1  0.71407505  0.16292801  0.35945225  1 -0.629107
  O  O269  1  0.63513641  0.14477174  0.10555615  1 -0.226943
  O  O270  1  0.73476740  0.78219237  0.61647924  1 -0.844005
  O  O271  1  0.62960008  0.13560248  0.45482436  1 -0.236239
  O  O272  1  0.33707254  0.21407407  0.14049303  1 -0.629244
  O  O273  1  0.35522621  0.13513913  0.39444088  1 -0.226962
  O  O274  1  0.71780741  0.23476665  0.88351452  1 -0.84397
  O  O275  1  0.36439868  0.12959762  0.04518209  1 -0.236289
  O  O276  1  0.66292780  0.78592461  0.14051409  1 -0.629188
  O  O277  1  0.64477315  0.86486021  0.39444144  1 -0.226927
  O  O278  1  0.28219258  0.76523317  0.88352100  1 -0.843996
  O  O279  1  0.63560217  0.87040115  0.04517975  1 -0.236292
  O  O280  1  0.78592452  0.33707246  0.85948292  1 -0.629157
  O  O281  1  0.86486083  0.35522703  0.60555730  1 -0.226904
  O  O282  1  0.76523402  0.71780718  0.11647742  1 -0.843885
  O  O283  1  0.87040111  0.36439797  0.95481931  1 -0.236273
  O  O284  1  0.21407486  0.66292763  0.85948030  1 -0.62916
  O  O285  1  0.13513826  0.64477262  0.60555878  1 -0.226946
  O  O286  1  0.23476730  0.28219245  0.11648301  1 -0.843994
  O  O287  1  0.12959885  0.63560202  0.95482064  1 -0.23627
  O  O288  1  0.83707302  0.71407438  0.64050605  1 -0.629246
  O  O289  1  0.85522743  0.63513882  0.89444076  1 -0.226937
  O  O290  1  0.21780709  0.73476707  0.38352131  1 -0.843991
  O  O291  1  0.86439941  0.62959777  0.54518097  1 -0.236301
  O  O292  1  0.16292792  0.28592458  0.64051673  1 -0.629174
  O  O293  1  0.14477322  0.36486045  0.89444354  1 -0.226937
  O  O294  1  0.78219245  0.26523309  0.38352288  1 -0.844018
  O  O295  1  0.13560235  0.37040121  0.54518081  1 -0.236303
