# generated using pymatgen
data_ZnH12C18(NO2)2
_symmetry_space_group_name_H-M   'P 1'
_cell_length_a   26.41248643
_cell_length_b   26.41249627
_cell_length_c   4.43845256
_cell_angle_alpha   90.00005523
_cell_angle_beta   89.99997054
_cell_angle_gamma   89.99991479
_symmetry_Int_Tables_number   1
_chemical_formula_structural   ZnH12C18(NO2)2
_chemical_formula_sum   'Zn8 H96 C144 N16 O32'
_cell_volume   3096.35194212
_cell_formula_units_Z   8
loop_
 _symmetry_equiv_pos_site_id
 _symmetry_equiv_pos_as_xyz
  1  'x, y, z'
loop_
 _atom_site_type_symbol
 _atom_site_label
 _atom_site_symmetry_multiplicity
 _atom_site_fract_x
 _atom_site_fract_y
 _atom_site_fract_z
 _atom_site_occupancy
 _atom_site_charge
  Zn  Zn0  1  0.26396759  0.21330107  0.09614030  1 0.883134
  Zn  Zn1  1  0.73603167  0.78669843  0.09613467  1 0.883131
  Zn  Zn2  1  0.71330140  0.23603185  0.40384898  1 0.883145
  Zn  Zn3  1  0.28669863  0.76396728  0.40384712  1 0.883204
  Zn  Zn4  1  0.76396822  0.71330167  0.59613977  1 0.883196
  Zn  Zn5  1  0.23603136  0.28669776  0.59613791  1 0.883145
  Zn  Zn6  1  0.21330198  0.73603178  0.90385373  1 0.883097
  Zn  Zn7  1  0.78669791  0.26396850  0.90384767  1 0.883124
  H  H8  1  0.27604550  0.10434638  0.37268441  1 0.117249
  H  H9  1  0.17065079  0.19961983  0.63005246  1 0.141578
  H  H10  1  0.11924826  0.19951481  0.16598924  1 0.113483
  H  H11  1  0.06901254  0.15309830  0.78753033  1 0.096535
  H  H12  1  0.06089892  0.05935302  0.81984056  1 0.095292
  H  H13  1  0.09822827  0.01227083  0.24430788  1 0.101753
  H  H14  1  0.15005420  0.01116470  0.70862463  1 0.125407
  H  H15  1  0.25394596  0.91758814  0.62906672  1 0.09738
  H  H16  1  0.34206533  0.93742628  0.82756438  1 0.118975
  H  H17  1  0.30071935  0.01997995  0.73778282  1 0.126693
  H  H18  1  0.21341982  0.99939786  0.53983124  1 0.09484
  H  H19  1  0.30170600  0.22001239  0.57603380  1 0.364621
  H  H20  1  0.72395465  0.89565368  0.37268645  1 0.117284
  H  H21  1  0.82934951  0.80037995  0.63005298  1 0.141569
  H  H22  1  0.88075220  0.80048509  0.16598890  1 0.113473
  H  H23  1  0.93098767  0.84690164  0.78752833  1 0.096557
  H  H24  1  0.93910097  0.94064698  0.81983910  1 0.09532
  H  H25  1  0.90177148  0.98772913  0.24430730  1 0.1018
  H  H26  1  0.84994591  0.98883513  0.70862590  1 0.125403
  H  H27  1  0.74605428  0.08241165  0.62906968  1 0.097388
  H  H28  1  0.65793504  0.06257362  0.82756922  1 0.118992
  H  H29  1  0.69928114  0.98002010  0.73778755  1 0.126737
  H  H30  1  0.78658064  0.00060228  0.53983407  1 0.094833
  H  H31  1  0.69829399  0.77998782  0.57602430  1 0.3646
  H  H32  1  0.60434660  0.22395423  0.12731195  1 0.117235
  H  H33  1  0.69961970  0.32934918  0.86994726  1 0.141563
  H  H34  1  0.69951428  0.38075143  0.33401235  1 0.113471
  H  H35  1  0.65309764  0.43098737  0.71246932  1 0.096545
  H  H36  1  0.55935234  0.43910090  0.68015886  1 0.095317
  H  H37  1  0.51227047  0.40177130  0.25569016  1 0.101821
  H  H38  1  0.51116459  0.34994520  0.79137371  1 0.125404
  H  H39  1  0.41758831  0.24605314  0.87093788  1 0.09733
  H  H40  1  0.43742656  0.15793429  0.67243930  1 0.118937
  H  H41  1  0.51997997  0.19928069  0.76221374  1 0.126731
  H  H42  1  0.49939771  0.28657988  0.96016582  1 0.094668
  H  H43  1  0.72001237  0.19829305  0.92394675  1 0.364629
  H  H44  1  0.39565319  0.77604590  0.12730777  1 0.11727
  H  H45  1  0.30037986  0.67065024  0.86994024  1 0.141546
  H  H46  1  0.30048525  0.61924823  0.33400400  1 0.113508
  H  H47  1  0.34690178  0.56901257  0.71246349  1 0.096544
  H  H48  1  0.44064712  0.56089968  0.68015146  1 0.095312
  H  H49  1  0.48772927  0.59822954  0.25568575  1 0.10185
  H  H50  1  0.48883531  0.65005556  0.79136907  1 0.12539
  H  H51  1  0.58241218  0.75394730  0.87093417  1 0.097345
  H  H52  1  0.56257271  0.84206566  0.67244011  1 0.118974
  H  H53  1  0.48001921  0.80071920  0.76221543  1 0.126693
  H  H54  1  0.50060265  0.71342079  0.96016548  1 0.094838
  H  H55  1  0.27998771  0.80170648  0.92394582  1 0.364629
  H  H56  1  0.77604601  0.60434702  0.87269060  1 0.117263
  H  H57  1  0.67065187  0.69962019  0.13005390  1 0.141591
  H  H58  1  0.61924916  0.69951505  0.66599242  1 0.113484
  H  H59  1  0.56901306  0.65309835  0.28753549  1 0.096536
  H  H60  1  0.56089908  0.55935316  0.31985023  1 0.095333
  H  H61  1  0.59822815  0.51227122  0.74431860  1 0.101828
  H  H62  1  0.65005414  0.51116533  0.20863483  1 0.125402
  H  H63  1  0.75394546  0.41758916  0.12907799  1 0.097367
  H  H64  1  0.84206522  0.43742647  0.32757679  1 0.118962
  H  H65  1  0.80071963  0.51998020  0.23779379  1 0.126794
  H  H66  1  0.71341970  0.49939892  0.03984077  1 0.094786
  H  H67  1  0.80170617  0.72001272  0.07602522  1 0.36461
  H  H68  1  0.22395438  0.39565296  0.87268782  1 0.117296
  H  H69  1  0.32934882  0.30037954  0.13005042  1 0.141544
  H  H70  1  0.38075143  0.30048473  0.66598660  1 0.113457
  H  H71  1  0.43098701  0.34690116  0.28752645  1 0.096536
  H  H72  1  0.43910034  0.44064648  0.31983817  1 0.095274
  H  H73  1  0.40177107  0.48772854  0.74430639  1 0.101812
  H  H74  1  0.34994517  0.48883458  0.20862434  1 0.125437
  H  H75  1  0.24605308  0.58241123  0.12906834  1 0.09736
  H  H76  1  0.15793439  0.56257247  0.32756598  1 0.118993
  H  H77  1  0.19928056  0.48001892  0.23778649  1 0.126701
  H  H78  1  0.28657941  0.50060163  0.03983485  1 0.094814
  H  H79  1  0.19829345  0.27998735  0.07603217  1 0.364695
  H  H80  1  0.10434726  0.72395392  0.62730879  1 0.117257
  H  H81  1  0.19962092  0.82934871  0.36994440  1 0.141523
  H  H82  1  0.19951562  0.88075100  0.83400896  1 0.113476
  H  H83  1  0.15309917  0.93098671  0.21246792  1 0.096525
  H  H84  1  0.05935390  0.93910006  0.18015869  1 0.095333
  H  H85  1  0.01227170  0.90177057  0.75569209  1 0.101794
  H  H86  1  0.01116560  0.84994442  0.29137517  1 0.125366
  H  H87  1  0.91758871  0.74605197  0.37094153  1 0.097336
  H  H88  1  0.93742792  0.65793381  0.17244542  1 0.118972
  H  H89  1  0.01998148  0.69928042  0.26221625  1 0.126753
  H  H90  1  0.99939830  0.78657872  0.46016431  1 0.09467
  H  H91  1  0.22001240  0.69829331  0.42396416  1 0.36459
  H  H92  1  0.89565282  0.27604635  0.62731073  1 0.117285
  H  H93  1  0.80037967  0.17065135  0.36994807  1 0.141546
  H  H94  1  0.80048499  0.11924909  0.83401155  1 0.113459
  H  H95  1  0.84690167  0.06901329  0.21246891  1 0.096522
  H  H96  1  0.94064688  0.06090019  0.18015545  1 0.095299
  H  H97  1  0.98772880  0.09822968  0.75568852  1 0.101829
  H  H98  1  0.98883475  0.15005573  0.29137175  1 0.125361
  H  H99  1  0.08241106  0.25394725  0.37093316  1 0.097376
  H  H100  1  0.06257271  0.34206625  0.17243567  1 0.118919
  H  H101  1  0.98001925  0.30072029  0.26221415  1 0.126722
  H  H102  1  0.00060153  0.21342115  0.46016598  1 0.094799
  H  H103  1  0.77998675  0.30170733  0.42394444  1 0.364664
  C  C104  1  0.24588082  0.10476690  0.20607724  1 0.14915
  C  C105  1  0.19669088  0.13082711  0.84310485  1 0.14969
  C  C106  1  0.16907819  0.15843500  0.63259478  1 -0.172408
  C  C107  1  0.13845179  0.13310639  0.42375940  1 0.04991
  C  C108  1  0.11378930  0.15884392  0.18872344  1 -0.15679
  C  C109  1  0.08579349  0.13304739  0.97647087  1 -0.086277
  C  C110  1  0.08111721  0.07963507  0.99609114  1 -0.063114
  C  C111  1  0.10235052  0.05323156  0.23335167  1 -0.183649
  C  C112  1  0.13222123  0.07806930  0.44790721  1 0.057494
  C  C113  1  0.15745684  0.05141914  0.67917928  1 -0.190527
  C  C114  1  0.19277201  0.07678588  0.85534846  1 0.083559
  C  C115  1  0.26471486  0.93978712  0.43415245  1 -0.056415
  C  C116  1  0.30183110  0.92207551  0.23635623  1 -0.060166
  C  C117  1  0.31434142  0.95134877  0.98941408  1 -0.074839
  C  C118  1  0.28828244  0.99657006  0.92490952  1 -0.119014
  C  C119  1  0.24961343  0.01266095  0.12025168  1 0.131569
  C  C120  1  0.23902174  0.98444450  0.37295012  1 -0.166373
  C  C121  1  0.32129387  0.86934826  0.28827000  1 0.545044
  C  C122  1  0.75411930  0.89523295  0.20608088  1 0.149061
  C  C123  1  0.80330947  0.86917279  0.84310527  1 0.149656
  C  C124  1  0.83092192  0.84156492  0.63259635  1 -0.172408
  C  C125  1  0.86154845  0.86689356  0.42375926  1 0.049932
  C  C126  1  0.88621095  0.84115580  0.18872290  1 -0.156798
  C  C127  1  0.91420664  0.86695270  0.97646996  1 -0.0863
  C  C128  1  0.91888281  0.92036480  0.99608891  1 -0.063197
  C  C129  1  0.89764944  0.94676859  0.23335121  1 -0.183656
  C  C130  1  0.86777876  0.92193055  0.44790792  1 0.057467
  C  C131  1  0.84254344  0.94858090  0.67917958  1 -0.190476
  C  C132  1  0.80722801  0.92321374  0.85535088  1 0.083536
  C  C133  1  0.73528540  0.06021357  0.43415928  1 -0.056438
  C  C134  1  0.69816896  0.07792381  0.23635703  1 -0.060108
  C  C135  1  0.68565892  0.04865176  0.98942342  1 -0.0749
  C  C136  1  0.71171774  0.00342938  0.92491156  1 -0.119078
  C  C137  1  0.75038696  0.98733948  0.12025991  1 0.131695
  C  C138  1  0.76097859  0.01555464  0.37294864  1 -0.1664
  C  C139  1  0.67870641  0.13065182  0.28827373  1 0.545077
  C  C140  1  0.60476729  0.25411913  0.29392056  1 0.149136
  C  C141  1  0.63082692  0.30330871  0.65689071  1 0.14968
  C  C142  1  0.65843528  0.33092180  0.86740506  1 -0.172409
  C  C143  1  0.63310603  0.36154788  0.07623894  1 0.049895
  C  C144  1  0.65884385  0.38621032  0.31127570  1 -0.156657
  C  C145  1  0.63304655  0.41420649  0.52352889  1 -0.086288
  C  C146  1  0.57963479  0.41888253  0.50390794  1 -0.063255
  C  C147  1  0.55323110  0.39764921  0.26664723  1 -0.183731
  C  C148  1  0.57806919  0.36777849  0.05209175  1 0.057534
  C  C149  1  0.55141897  0.34254273  0.82081914  1 -0.190464
  C  C150  1  0.57678613  0.30722769  0.64464947  1 0.083524
  C  C151  1  0.43978559  0.23528498  0.06583991  1 -0.056478
  C  C152  1  0.42207694  0.19816776  0.26365798  1 -0.059963
  C  C153  1  0.45134734  0.18565863  0.51057417  1 -0.074945
  C  C154  1  0.49657136  0.21171673  0.57509664  1 -0.119029
  C  C155  1  0.51265974  0.25038675  0.37973321  1 0.131525
  C  C156  1  0.48444658  0.26097714  0.12706414  1 -0.166023
  C  C157  1  0.36934775  0.17870624  0.21173083  1 0.54517
  C  C158  1  0.39523279  0.74588111  0.29391502  1 0.149038
  C  C159  1  0.36917277  0.69669103  0.65688603  1 0.149758
  C  C160  1  0.34156452  0.66907797  0.86739845  1 -0.17248
  C  C161  1  0.36689359  0.63845229  0.07623146  1 0.049929
  C  C162  1  0.34115600  0.61378913  0.31127192  1 -0.156751
  C  C163  1  0.36695290  0.58579399  0.52351949  1 -0.086279
  C  C164  1  0.42036491  0.58111743  0.50390575  1 -0.06318
  C  C165  1  0.44676876  0.60235180  0.26663915  1 -0.183805
  C  C166  1  0.42193067  0.63222174  0.05208734  1 0.057603
  C  C167  1  0.44858089  0.65745773  0.82081488  1 -0.190544
  C  C168  1  0.42321344  0.69277253  0.64464408  1 0.083591
  C  C169  1  0.56021362  0.76471597  0.06584727  1 -0.056358
  C  C170  1  0.57792379  0.80183207  0.26364815  1 -0.060158
  C  C171  1  0.54865111  0.81434212  0.51058473  1 -0.074815
  C  C172  1  0.50342877  0.78828273  0.57509031  1 -0.119035
  C  C173  1  0.48733916  0.74961411  0.37974264  1 0.13163
  C  C174  1  0.51555497  0.73902260  0.12704958  1 -0.166389
  C  C175  1  0.63065146  0.82129476  0.21173224  1 0.545307
  C  C176  1  0.74588120  0.60476774  0.70608333  1 0.149047
  C  C177  1  0.69669142  0.63082734  0.34311005  1 0.149616
  C  C178  1  0.66907900  0.65843551  0.13259854  1 -0.172445
  C  C179  1  0.63845243  0.63310674  0.92376557  1 0.049966
  C  C180  1  0.61379003  0.65884422  0.68872834  1 -0.156705
  C  C181  1  0.58579385  0.63304758  0.47647722  1 -0.086288
  C  C182  1  0.58111736  0.57963537  0.49609818  1 -0.063198
  C  C183  1  0.60235051  0.55323188  0.73336140  1 -0.183823
  C  C184  1  0.63222153  0.57806978  0.94791583  1 0.057559
  C  C185  1  0.65745669  0.55141949  0.17918757  1 -0.190467
  C  C186  1  0.69277235  0.57678696  0.35535793  1 0.083597
  C  C187  1  0.76471456  0.43978736  0.93416678  1 -0.056421
  C  C188  1  0.80183089  0.42207622  0.73636490  1 -0.060169
  C  C189  1  0.81434133  0.45134865  0.48942913  1 -0.074807
  C  C190  1  0.78828262  0.49657071  0.42491909  1 -0.119127
  C  C191  1  0.74961328  0.51266115  0.62026419  1 0.131718
  C  C192  1  0.73902187  0.48444584  0.87295647  1 -0.16633
  C  C193  1  0.82129322  0.36934838  0.78828006  1 0.54504
  C  C194  1  0.25411911  0.39523218  0.70607953  1 0.149025
  C  C195  1  0.30330871  0.36917236  0.34310547  1 0.149732
  C  C196  1  0.33092135  0.34156410  0.13259374  1 -0.17238
  C  C197  1  0.36154781  0.36689319  0.92375849  1 0.049934
  C  C198  1  0.38621027  0.34115520  0.68872148  1 -0.156712
  C  C199  1  0.41420615  0.36695225  0.47646743  1 -0.086262
  C  C200  1  0.41888226  0.42036416  0.49608864  1 -0.063147
  C  C201  1  0.39764903  0.44676810  0.73335039  1 -0.183755
  C  C202  1  0.36777827  0.42192984  0.94790640  1 0.057497
  C  C203  1  0.34254285  0.44858050  0.17917862  1 -0.190477
  C  C204  1  0.30722753  0.42321299  0.35535002  1 0.083469
  C  C205  1  0.23528439  0.56021294  0.93415538  1 -0.056436
  C  C206  1  0.19816856  0.57792324  0.73635448  1 -0.060094
  C  C207  1  0.18565814  0.54865066  0.48941810  1 -0.074812
  C  C208  1  0.21171736  0.50342861  0.42491166  1 -0.119059
  C  C209  1  0.25038636  0.48733858  0.62025642  1 0.131627
  C  C210  1  0.26097779  0.51555427  0.87294976  1 -0.166313
  C  C211  1  0.17870614  0.63065126  0.78826843  1 0.545058
  C  C212  1  0.10476822  0.75411868  0.79391733  1 0.149082
  C  C213  1  0.13082782  0.80330830  0.15688853  1 0.149745
  C  C214  1  0.15843643  0.83092137  0.36740351  1 -0.17242
  C  C215  1  0.13310734  0.86154725  0.57623614  1 0.049905
  C  C216  1  0.15884512  0.88620987  0.81127414  1 -0.156739
  C  C217  1  0.13304811  0.91420588  0.02352803  1 -0.086245
  C  C218  1  0.07963605  0.91888189  0.00390771  1 -0.063278
  C  C219  1  0.05323240  0.89764845  0.76664807  1 -0.183663
  C  C220  1  0.07807038  0.86777782  0.55209142  1 0.057533
  C  C221  1  0.05142003  0.84254205  0.32081908  1 -0.190433
  C  C222  1  0.07678728  0.80722733  0.14464878  1 0.083571
  C  C223  1  0.93978590  0.73528408  0.56584408  1 -0.056345
  C  C224  1  0.92207775  0.69816725  0.76366552  1 -0.060055
  C  C225  1  0.95134829  0.68565813  0.01057982  1 -0.074955
  C  C226  1  0.99657255  0.71171660  0.07509924  1 -0.119011
  C  C227  1  0.01266055  0.75038631  0.87973433  1 0.131439
  C  C228  1  0.98444731  0.76097641  0.62706559  1 -0.166152
  C  C229  1  0.86934853  0.67870593  0.71173914  1 0.545259
  C  C230  1  0.89523201  0.24588119  0.79392158  1 0.149035
  C  C231  1  0.86917260  0.19669202  0.15688804  1 0.149749
  C  C232  1  0.84156383  0.16907846  0.36740719  1 -0.172412
  C  C233  1  0.86689333  0.13845308  0.57623577  1 0.050014
  C  C234  1  0.84115575  0.11378972  0.81127866  1 -0.156751
  C  C235  1  0.86695262  0.08579454  0.02352363  1 -0.08624
  C  C236  1  0.92036440  0.08111782  0.00390929  1 -0.063191
  C  C237  1  0.94676856  0.10235216  0.76664150  1 -0.183755
  C  C238  1  0.92193014  0.13222200  0.55209216  1 0.057502
  C  C239  1  0.94858045  0.15745824  0.32081698  1 -0.190462
  C  C240  1  0.92321310  0.19277287  0.14464872  1 0.083574
  C  C241  1  0.06021357  0.26471610  0.56584124  1 -0.056459
  C  C242  1  0.07792294  0.30183219  0.76365104  1 -0.06013
  C  C243  1  0.04865145  0.31434236  0.01057852  1 -0.074829
  C  C244  1  0.00342831  0.28828359  0.07509236  1 -0.118957
  C  C245  1  0.98733910  0.24961422  0.87973946  1 0.131568
  C  C246  1  0.01555341  0.23902317  0.62705534  1 -0.166232
  C  C247  1  0.13065153  0.32129425  0.71173116  1 0.545208
  N  N248  1  0.22922591  0.14631011  0.06777585  1 -0.321678
  N  N249  1  0.22587150  0.06162155  0.08193322  1 -0.05594
  N  N250  1  0.77077426  0.85368963  0.06777829  1 -0.32166
  N  N251  1  0.77412875  0.93837850  0.08193510  1 -0.055962
  N  N252  1  0.64631015  0.27077396  0.43221943  1 -0.321675
  N  N253  1  0.56162176  0.27412809  0.41806608  1 -0.056034
  N  N254  1  0.35368946  0.72922591  0.43221473  1 -0.321691
  N  N255  1  0.43837815  0.72587215  0.41806082  1 -0.056015
  N  N256  1  0.72922674  0.64631081  0.56778102  1 -0.321636
  N  N257  1  0.72587167  0.56162203  0.58194190  1 -0.056134
  N  N258  1  0.27077370  0.35368905  0.56777789  1 -0.321608
  N  N259  1  0.27412827  0.43837796  0.58193551  1 -0.056106
  N  N260  1  0.14631110  0.77077357  0.93221735  1 -0.321645
  N  N261  1  0.06162251  0.77412762  0.91806377  1 -0.055991
  N  N262  1  0.85368926  0.22922649  0.93221909  1 -0.321626
  N  N263  1  0.93837773  0.22587275  0.91806428  1 -0.056186
  O  O264  1  0.28459013  0.83707538  0.33737151  1 -0.628065
  O  O265  1  0.36506558  0.85630605  0.10791908  1 -0.22567
  O  O266  1  0.26535821  0.21804938  0.61791523  1 -0.845653
  O  O267  1  0.36808212  0.86501102  0.45753985  1 -0.236794
  O  O268  1  0.71540984  0.16292471  0.33736399  1 -0.62809
  O  O269  1  0.63493405  0.14369341  0.10792937  1 -0.22567
  O  O270  1  0.73464176  0.78195107  0.61791985  1 -0.845604
  O  O271  1  0.63191893  0.13498952  0.45755196  1 -0.236774
  O  O272  1  0.33707523  0.21540943  0.16264064  1 -0.628115
  O  O273  1  0.35630610  0.13493388  0.39207775  1 -0.225684
  O  O274  1  0.71804937  0.23464125  0.88208025  1 -0.845609
  O  O275  1  0.36501035  0.13191854  0.04245565  1 -0.236851
  O  O276  1  0.66292511  0.78459063  0.16265940  1 -0.628256
  O  O277  1  0.64369240  0.86506898  0.39206124  1 -0.225774
  O  O278  1  0.28195154  0.76535757  0.88208415  1 -0.845615
  O  O279  1  0.63498945  0.86808022  0.04243402  1 -0.236763
  O  O280  1  0.78458931  0.33707559  0.83736884  1 -0.628053
  O  O281  1  0.86506572  0.35630667  0.60793545  1 -0.225647
  O  O282  1  0.76535827  0.71804953  0.11791903  1 -0.845607
  O  O283  1  0.86808068  0.36501031  0.95755950  1 -0.236788
  O  O284  1  0.21541052  0.66292434  0.83735117  1 -0.628087
  O  O285  1  0.13493325  0.64369266  0.60792870  1 -0.225664
  O  O286  1  0.23464115  0.28195014  0.11791683  1 -0.845703
  O  O287  1  0.13191960  0.63498953  0.95755280  1 -0.236784
  O  O288  1  0.83707594  0.71541027  0.66265632  1 -0.628215
  O  O289  1  0.85630696  0.63493305  0.89208066  1 -0.225721
  O  O290  1  0.21804911  0.73464166  0.38208066  1 -0.84563
  O  O291  1  0.86501033  0.63191903  0.54245648  1 -0.23682
  O  O292  1  0.16292448  0.28459045  0.66264849  1 -0.628122
  O  O293  1  0.14369306  0.36506714  0.89207070  1 -0.22571
  O  O294  1  0.78194987  0.26535905  0.38208065  1 -0.845701
  O  O295  1  0.13498980  0.36808088  0.54244651  1 -0.236833
