# generated using pymatgen
data_CuH20(C7N6)2
_symmetry_space_group_name_H-M   'P 1'
_cell_length_a   15.53053700
_cell_length_b   14.81196020
_cell_length_c   14.81130010
_cell_angle_alpha   71.53103368
_cell_angle_beta   69.54201050
_cell_angle_gamma   110.45484469
_symmetry_Int_Tables_number   1
_chemical_formula_structural   CuH20(C7N6)2
_chemical_formula_sum   'Cu3 H60 C42 N36'
_cell_volume   2590.24730271
_cell_formula_units_Z   3
loop_
 _symmetry_equiv_pos_site_id
 _symmetry_equiv_pos_as_xyz
  1  'x, y, z'
loop_
 _atom_site_type_symbol
 _atom_site_label
 _atom_site_symmetry_multiplicity
 _atom_site_fract_x
 _atom_site_fract_y
 _atom_site_fract_z
 _atom_site_occupancy
 _atom_site_charge
  Cu  Cu0  1  0.95035755  0.96129861  0.49847154  1 0.2752
  Cu  Cu1  1  0.48689293  0.53417085  0.49860426  1 0.272914
  Cu  Cu2  1  0.00790675  0.44493159  0.03881850  1 0.273419
  H  H3  1  0.93476386  0.53426074  0.64277764  1 0.084614
  H  H4  1  0.47610164  0.48795022  0.88716979  1 0.080978
  H  H5  1  0.58986629  0.52588069  0.26753228  1 0.092273
  H  H6  1  0.06020175  0.41943511  0.40511151  1 0.084615
  H  H7  1  0.19617623  0.10994809  0.36564194  1 0.074779
  H  H8  1  0.98618558  0.32132708  0.54994577  1 0.079459
  H  H9  1  0.63609104  0.10305377  0.42373252  1 0.079905
  H  H10  1  0.87440654  0.75063238  0.87051515  1 0.066832
  H  H11  1  0.41951519  0.50468125  0.73876629  1 0.092273
  H  H12  1  0.43635806  0.82430479  0.70910158  1 0.106423
  H  H13  1  0.51249554  0.12617258  0.34597676  1 0.106422
  H  H14  1  0.11034911  0.56295386  0.15212398  1 0.075594
  H  H15  1  0.36022910  0.76709891  0.55763737  1 0.083885
  H  H16  1  0.25007069  0.11310073  0.62295247  1 0.06746
  H  H17  1  0.83762140  0.23649620  0.27804484  1 0.094383
  H  H18  1  0.54769295  0.79561073  0.51177688  1 0.078128
  H  H19  1  0.51397612  0.28569108  0.37365637  1 0.07573
  H  H20  1  0.56745408  0.37963256  0.50392354  1 0.074941
  H  H21  1  0.64538677  0.47131537  0.84559281  1 0.105445
  H  H22  1  0.23679330  0.32770249  0.29040441  1 0.075622
  H  H23  1  0.27382934  0.35564124  0.53842903  1 0.07919
  H  H24  1  0.06746734  0.19740070  0.49524075  1 0.092543
  H  H25  1  0.74025142  0.70904717  0.80935475  1 0.077102
  H  H26  1  0.47373797  0.68918598  0.65246249  1 0.07573
  H  H27  1  0.78301564  0.67383306  0.70466890  1 0.075622
  H  H28  1  0.97385395  0.51350569  0.32852426  1 0.07658
  H  H29  1  0.08400931  0.53928967  0.48269111  1 0.09002
  H  H30  1  0.13384629  0.68161992  0.81705865  1 0.094384
  H  H31  1  0.56408299  0.63452562  0.81524606  1 0.084307
  H  H32  1  0.15565227  0.68531031  0.42463374  1 0.106111
  H  H33  1  0.45029305  0.19899148  0.51970265  1 0.078127
  H  H34  1  0.81058070  0.48870271  0.08016943  1 0.079697
  H  H35  1  0.90512768  0.73746720  0.48560432  1 0.092543
  H  H36  1  0.49707163  0.91937303  0.56640724  1 0.089855
  H  H37  1  0.94740437  0.50512839  0.86290252  1 0.075594
  H  H38  1  0.18483067  0.41233305  0.89023873  1 0.079696
  H  H39  1  0.61906060  0.19402449  0.47293713  1 0.083886
  H  H40  1  0.12876998  0.29692496  0.12081587  1 0.066834
  H  H41  1  0.09321609  0.90789967  0.58953510  1 0.079343
  H  H42  1  0.73470892  0.82701917  0.46975089  1 0.067459
  H  H43  1  0.42819959  0.49532002  0.05216609  1 0.089616
  H  H44  1  0.54147515  0.49473221  0.12642894  1 0.080976
  H  H45  1  0.09071209  0.50863153  0.65244865  1 0.076578
  H  H46  1  0.24147095  0.47484494  0.64220975  1 0.066806
  H  H47  1  0.38559254  0.53388336  0.15351072  1 0.105447
  H  H48  1  0.90368672  0.38513721  0.33489754  1 0.075094
  H  H49  1  0.81272358  0.28820389  0.54453760  1 0.10611
  H  H50  1  0.74311656  0.90813174  0.71535461  1 0.074777
  H  H51  1  0.14261796  0.65198043  0.61111740  1 0.075094
  H  H52  1  0.44246520  0.35100603  0.19683093  1 0.084308
  H  H53  1  0.85013007  0.07482221  0.39547150  1 0.079343
  H  H54  1  0.89119789  0.41448083  0.53436359  1 0.09002
  H  H55  1  0.45229037  0.04217879  0.49118600  1 0.089855
  H  H56  1  0.60014769  0.50808172  0.94746554  1 0.089616
  H  H57  1  0.49381814  0.75968416  0.33459924  1 0.074939
  H  H58  1  0.94838530  0.58620769  0.50976640  1 0.079455
  H  H59  1  0.27095914  0.30579897  0.17455564  1 0.077098
  H  H60  1  0.88896828  0.61222218  0.25196008  1 0.066806
  H  H61  1  0.30806137  0.82338044  0.63584373  1 0.079901
  H  H62  1  0.72024872  0.61435894  0.47274200  1 0.07919
  C  C63  1  0.89887018  0.12643743  0.41708123  1 0.123559
  C  C64  1  0.28886532  0.55202822  0.56383063  1 0.051092
  C  C65  1  0.79012357  0.41329923  0.14806647  1 0.117403
  C  C66  1  0.89019632  0.36699004  0.49041767  1 -0.181345
  C  C67  1  0.91307886  0.55777282  0.85581875  1 0.114516
  C  C68  1  0.00957395  0.18667873  0.46859122  1 0.020339
  C  C69  1  0.25896788  0.12064452  0.54438423  1 0.051732
  C  C70  1  0.61728755  0.16951287  0.41029161  1 -0.062052
  C  C71  1  0.41484895  0.69777720  0.40820356  1 0.116964
  C  C72  1  0.95986790  0.76360295  0.51396965  1 0.020339
  C  C73  1  0.50714272  0.12821460  0.42119137  1 -0.180808
  C  C74  1  0.14119808  0.59341739  0.58016501  1 -0.076652
  C  C75  1  0.14072416  0.36688308  0.13474052  1 0.04817
  C  C76  1  0.13166179  0.50029917  0.15378156  1 0.114515
  C  C77  1  0.98942249  0.60164116  0.55518849  1 -0.063041
  C  C78  1  0.63633333  0.53757474  0.85771574  1 -0.18018
  C  C79  1  0.45989359  0.19935197  0.44243854  1 -0.078217
  C  C80  1  0.50333436  0.53257674  0.68805079  1 0.021083
  C  C81  1  0.38819830  0.46489809  0.14214471  1 -0.180181
  C  C82  1  0.80636805  0.28504780  0.24557490  1 0.018406
  C  C83  1  0.52124057  0.78026326  0.59729775  1 -0.078216
  C  C84  1  0.09619320  0.60622591  0.50313534  1 -0.181348
  C  C85  1  0.23557867  0.12136400  0.41242053  1 0.117496
  C  C86  1  0.34626617  0.77354480  0.63299489  1 -0.06205
  C  C87  1  0.45552349  0.43295429  0.18543913  1 -0.063455
  C  C88  1  0.87795659  0.68164905  0.86186992  1 0.048171
  C  C89  1  0.16990135  0.63088358  0.81391066  1 0.018407
  C  C90  1  0.34164162  0.38948027  0.45686591  1 0.123609
  C  C91  1  0.74679653  0.64299090  0.79439510  1 -0.078444
  C  C92  1  0.27277876  0.36850428  0.19966639  1 -0.078443
  C  C93  1  0.81487088  0.53933050  0.32485869  1 0.051092
  C  C94  1  0.71542484  0.88083813  0.66562371  1 0.117497
  C  C95  1  0.89984481  0.43104388  0.38038918  1 -0.076654
  C  C96  1  0.19738276  0.49462021  0.84836307  1 0.117403
  C  C97  1  0.45243919  0.83028589  0.62843885  1 -0.180809
  C  C98  1  0.98204174  0.34446163  0.47358972  1 -0.063043
  C  C99  1  0.71427703  0.84099758  0.53989471  1 0.051732
  C  C100  1  0.65826686  0.59042040  0.55369842  1 0.123608
  C  C101  1  0.05455661  0.84638315  0.57023351  1 0.123559
  C  C102  1  0.65390855  0.41929086  0.45217381  1 0.116964
  C  C103  1  0.50299250  0.47816038  0.31960036  1 0.021083
  C  C104  1  0.55948299  0.55588992  0.82274762  1 -0.063456
  N  N105  1  0.84094499  0.54372134  0.82418970  1 -0.290635
  N  N106  1  0.20108188  0.49259108  0.18432125  1 -0.290635
  N  N107  1  0.55407171  0.55340709  0.58198947  1 -0.297938
  N  N108  1  0.70749502  0.37139778  0.47658178  1 -0.295111
  N  N109  1  0.86249424  0.38090756  0.14752735  1 -0.293917
  N  N110  1  0.57704127  0.55507342  0.72031265  1 0.133611
  N  N111  1  0.81158735  0.45044402  0.39398714  1 0.132324
  N  N112  1  0.00306291  0.70549657  0.55015598  1 0.131436
  N  N113  1  0.96631318  0.10520984  0.44715763  1 -0.298712
  N  N114  1  0.43303805  0.43064437  0.29041011  1 0.133611
  N  N115  1  0.69317869  0.34450790  0.23924348  1 -0.264612
  N  N116  1  0.20691187  0.40701227  0.17088218  1 0.128748
  N  N117  1  0.77850816  0.87667995  0.57812146  1 -0.356728
  N  N118  1  0.18169932  0.09611036  0.52026624  1 -0.356727
  N  N119  1  0.71593798  0.52223176  0.35973104  1 -0.357108
  N  N120  1  0.99216773  0.85440517  0.52551678  1 -0.298712
  N  N121  1  0.67735823  0.59545111  0.63345730  1 -0.268833
  N  N122  1  0.96730170  0.25294574  0.45130779  1 0.131436
  N  N123  1  0.39498849  0.60494185  0.49068077  1 -0.357108
  N  N124  1  0.61585599  0.84946865  0.68587670  1 -0.291394
  N  N125  1  0.61715273  0.82673934  0.60257841  1 0.125206
  N  N126  1  0.32908703  0.70744720  0.42496225  1 -0.295111
  N  N127  1  0.70437879  0.26254755  0.30041345  1 0.130139
  N  N128  1  0.09171093  0.42517273  0.12350229  1 -0.354017
  N  N129  1  0.89601259  0.21443985  0.41858789  1 -0.266105
  N  N130  1  0.32951547  0.37338726  0.37783008  1 -0.268833
  N  N131  1  0.26828460  0.66450180  0.73089573  1 0.130132
  N  N132  1  0.93849545  0.64142458  0.88025868  1 -0.354017
  N  N133  1  0.34061704  0.15974391  0.36860909  1 -0.291394
  N  N134  1  0.06335549  0.75738921  0.58685507  1 -0.266105
  N  N135  1  0.24848876  0.61212426  0.52432919  1 0.132324
  N  N136  1  0.35431415  0.15864141  0.45502136  1 0.125206
  N  N137  1  0.81911916  0.62433366  0.82855509  1 0.128748
  N  N138  1  0.44615298  0.45324592  0.42564457  1 -0.297938
  N  N139  1  0.28676491  0.57718190  0.75132546  1 -0.264606
  N  N140  1  0.12427707  0.52340650  0.88944993  1 -0.293917
