# generated using pymatgen
data_LaH25C28(NO4)2
_symmetry_space_group_name_H-M   'P 1'
_cell_length_a   32.41138435
_cell_length_b   9.09720200
_cell_length_c   34.33301549
_cell_angle_alpha   90.00000000
_cell_angle_beta   116.56891820
_cell_angle_gamma   90.00000000
_symmetry_Int_Tables_number   1
_chemical_formula_structural   LaH25C28(NO4)2
_chemical_formula_sum   'La8 H200 C224 N16 O64'
_cell_volume   9054.15041851
_cell_formula_units_Z   8
loop_
 _symmetry_equiv_pos_site_id
 _symmetry_equiv_pos_as_xyz
  1  'x, y, z'
loop_
 _atom_site_type_symbol
 _atom_site_label
 _atom_site_symmetry_multiplicity
 _atom_site_fract_x
 _atom_site_fract_y
 _atom_site_fract_z
 _atom_site_occupancy
  La  La0  1  0.99697919  0.62907889  0.12099183  1
  La  La1  1  0.49697919  0.12907889  0.12099183  1
  La  La2  1  0.00302081  0.62907889  0.37900817  1
  La  La3  1  0.50302081  0.12907889  0.37900817  1
  La  La4  1  0.00302081  0.37092111  0.87900817  1
  La  La5  1  0.50302081  0.87092111  0.87900817  1
  La  La6  1  0.99697919  0.37092111  0.62099183  1
  La  La7  1  0.49697919  0.87092111  0.62099183  1
  H  H8  1  0.36969484  0.74835983  0.56962108  1
  H  H9  1  0.19475230  0.11141971  0.32943630  1
  H  H10  1  0.29729581  0.59331905  0.38514193  1
  H  H11  1  0.34455803  0.59203705  0.33496043  1
  H  H12  1  0.29936242  0.71831840  0.30842942  1
  H  H13  1  0.14754334  0.17951733  0.23680494  1
  H  H14  1  0.19281591  0.05245629  0.24996038  1
  H  H15  1  0.13874673  0.54041282  0.27077249  1
  H  H16  1  0.12791479  0.35014555  0.26497425  1
  H  H17  1  0.12975761  0.45217908  0.22191596  1
  H  H18  1  0.23733085  0.76564462  0.29520457  1
  H  H19  1  0.19710861  0.70172797  0.31278447  1
  H  H20  1  0.18218072  0.70536814  0.25671719  1
  H  H21  1  0.36251816  0.33390308  0.32304687  1
  H  H22  1  0.35102872  0.21122304  0.35676313  1
  H  H23  1  0.36128352  0.39792216  0.37108345  1
  H  H24  1  0.25283318  0.99877627  0.29247956  1
  H  H25  1  0.29522504  0.05188687  0.34458889  1
  H  H26  1  0.30690290  0.06298246  0.29920883  1
  H  H27  1  0.11135732  0.96088636  0.22318502  1
  H  H28  1  0.05090285  0.66580658  0.28122093  1
  H  H29  1  0.15919610  0.96114890  0.36298964  1
  H  H30  1  0.44426955  0.00311375  0.48595067  1
  H  H31  1  0.33324654  0.69535139  0.45646019  1
  H  H32  1  0.37091749  0.83229815  0.35588875  1
  H  H33  1  0.86969484  0.24835983  0.56962108  1
  H  H34  1  0.69475230  0.61141971  0.32943630  1
  H  H35  1  0.79729581  0.09331905  0.38514193  1
  H  H36  1  0.84455803  0.09203705  0.33496043  1
  H  H37  1  0.79936242  0.21831840  0.30842942  1
  H  H38  1  0.64754334  0.67951733  0.23680494  1
  H  H39  1  0.69281591  0.55245629  0.24996038  1
  H  H40  1  0.63874673  0.04041282  0.27077249  1
  H  H41  1  0.62791479  0.85014555  0.26497425  1
  H  H42  1  0.62975761  0.95217908  0.22191596  1
  H  H43  1  0.73733085  0.26564462  0.29520457  1
  H  H44  1  0.69710861  0.20172797  0.31278447  1
  H  H45  1  0.68218072  0.20536814  0.25671719  1
  H  H46  1  0.86251816  0.83390308  0.32304687  1
  H  H47  1  0.85102872  0.71122304  0.35676313  1
  H  H48  1  0.86128352  0.89792216  0.37108345  1
  H  H49  1  0.75283318  0.49877627  0.29247956  1
  H  H50  1  0.79522504  0.55188687  0.34458889  1
  H  H51  1  0.80690290  0.56298246  0.29920883  1
  H  H52  1  0.61135732  0.46088636  0.22318502  1
  H  H53  1  0.55090285  0.16580658  0.28122093  1
  H  H54  1  0.65919610  0.46114890  0.36298964  1
  H  H55  1  0.94426955  0.50311375  0.48595067  1
  H  H56  1  0.83324654  0.19535139  0.45646019  1
  H  H57  1  0.87091749  0.33229815  0.35588875  1
  H  H58  1  0.63030516  0.74835983  0.93037892  1
  H  H59  1  0.80524770  0.11141971  0.17056370  1
  H  H60  1  0.70270419  0.59331905  0.11485807  1
  H  H61  1  0.65544197  0.59203705  0.16503957  1
  H  H62  1  0.70063758  0.71831840  0.19157058  1
  H  H63  1  0.85245666  0.17951733  0.26319506  1
  H  H64  1  0.80718409  0.05245629  0.25003962  1
  H  H65  1  0.86125327  0.54041282  0.22922751  1
  H  H66  1  0.87208521  0.35014555  0.23502575  1
  H  H67  1  0.87024239  0.45217908  0.27808404  1
  H  H68  1  0.76266915  0.76564462  0.20479543  1
  H  H69  1  0.80289139  0.70172797  0.18721553  1
  H  H70  1  0.81781928  0.70536814  0.24328281  1
  H  H71  1  0.63748184  0.33390308  0.17695313  1
  H  H72  1  0.64897128  0.21122304  0.14323687  1
  H  H73  1  0.63871648  0.39792216  0.12891655  1
  H  H74  1  0.74716682  0.99877627  0.20752044  1
  H  H75  1  0.70477496  0.05188687  0.15541111  1
  H  H76  1  0.69309710  0.06298246  0.20079117  1
  H  H77  1  0.88864268  0.96088636  0.27681498  1
  H  H78  1  0.94909715  0.66580658  0.21877907  1
  H  H79  1  0.84080390  0.96114890  0.13701036  1
  H  H80  1  0.55573045  0.00311375  0.01404933  1
  H  H81  1  0.66675346  0.69535139  0.04353981  1
  H  H82  1  0.62908251  0.83229815  0.14411125  1
  H  H83  1  0.13030516  0.24835983  0.93037892  1
  H  H84  1  0.30524770  0.61141971  0.17056370  1
  H  H85  1  0.20270419  0.09331905  0.11485807  1
  H  H86  1  0.15544197  0.09203705  0.16503957  1
  H  H87  1  0.20063758  0.21831840  0.19157058  1
  H  H88  1  0.35245666  0.67951733  0.26319506  1
  H  H89  1  0.30718409  0.55245629  0.25003962  1
  H  H90  1  0.36125327  0.04041282  0.22922751  1
  H  H91  1  0.37208521  0.85014555  0.23502575  1
  H  H92  1  0.37024239  0.95217908  0.27808404  1
  H  H93  1  0.26266915  0.26564462  0.20479543  1
  H  H94  1  0.30289139  0.20172797  0.18721553  1
  H  H95  1  0.31781928  0.20536814  0.24328281  1
  H  H96  1  0.13748184  0.83390308  0.17695313  1
  H  H97  1  0.14897128  0.71122304  0.14323687  1
  H  H98  1  0.13871648  0.89792216  0.12891655  1
  H  H99  1  0.24716682  0.49877627  0.20752044  1
  H  H100  1  0.20477496  0.55188687  0.15541111  1
  H  H101  1  0.19309710  0.56298246  0.20079117  1
  H  H102  1  0.38864268  0.46088636  0.27681498  1
  H  H103  1  0.44909715  0.16580658  0.21877907  1
  H  H104  1  0.34080390  0.46114890  0.13701036  1
  H  H105  1  0.05573045  0.50311375  0.01404933  1
  H  H106  1  0.16675346  0.19535139  0.04353981  1
  H  H107  1  0.12908251  0.33229815  0.14411125  1
  H  H108  1  0.63030516  0.25164017  0.43037892  1
  H  H109  1  0.80524770  0.88858029  0.67056370  1
  H  H110  1  0.70270419  0.40668095  0.61485807  1
  H  H111  1  0.65544197  0.40796295  0.66503957  1
  H  H112  1  0.70063758  0.28168160  0.69157058  1
  H  H113  1  0.85245666  0.82048267  0.76319506  1
  H  H114  1  0.80718409  0.94754371  0.75003962  1
  H  H115  1  0.86125327  0.45958718  0.72922751  1
  H  H116  1  0.87208521  0.64985445  0.73502575  1
  H  H117  1  0.87024239  0.54782092  0.77808404  1
  H  H118  1  0.76266915  0.23435538  0.70479543  1
  H  H119  1  0.80289139  0.29827203  0.68721553  1
  H  H120  1  0.81781928  0.29463186  0.74328281  1
  H  H121  1  0.63748184  0.66609692  0.67695313  1
  H  H122  1  0.64897128  0.78877696  0.64323687  1
  H  H123  1  0.63871648  0.60207784  0.62891655  1
  H  H124  1  0.74716682  0.00122373  0.70752044  1
  H  H125  1  0.70477496  0.94811313  0.65541111  1
  H  H126  1  0.69309710  0.93701754  0.70079117  1
  H  H127  1  0.88864268  0.03911364  0.77681498  1
  H  H128  1  0.94909715  0.33419342  0.71877907  1
  H  H129  1  0.84080390  0.03885110  0.63701036  1
  H  H130  1  0.55573045  0.99688625  0.51404933  1
  H  H131  1  0.66675346  0.30464861  0.54353981  1
  H  H132  1  0.62908251  0.16770185  0.64411125  1
  H  H133  1  0.13030516  0.75164017  0.43037892  1
  H  H134  1  0.30524770  0.38858029  0.67056370  1
  H  H135  1  0.20270419  0.90668095  0.61485807  1
  H  H136  1  0.15544197  0.90796295  0.66503957  1
  H  H137  1  0.20063758  0.78168160  0.69157058  1
  H  H138  1  0.35245666  0.32048267  0.76319506  1
  H  H139  1  0.30718409  0.44754371  0.75003962  1
  H  H140  1  0.36125327  0.95958718  0.72922751  1
  H  H141  1  0.37208521  0.14985445  0.73502575  1
  H  H142  1  0.37024239  0.04782092  0.77808404  1
  H  H143  1  0.26266915  0.73435538  0.70479543  1
  H  H144  1  0.30289139  0.79827203  0.68721553  1
  H  H145  1  0.31781928  0.79463186  0.74328281  1
  H  H146  1  0.13748184  0.16609692  0.67695313  1
  H  H147  1  0.14897128  0.28877696  0.64323687  1
  H  H148  1  0.13871648  0.10207784  0.62891655  1
  H  H149  1  0.24716682  0.50122373  0.70752044  1
  H  H150  1  0.20477496  0.44811313  0.65541111  1
  H  H151  1  0.19309710  0.43701754  0.70079117  1
  H  H152  1  0.38864268  0.53911364  0.77681498  1
  H  H153  1  0.44909715  0.83419342  0.71877907  1
  H  H154  1  0.34080390  0.53885110  0.63701036  1
  H  H155  1  0.05573045  0.49688625  0.51404933  1
  H  H156  1  0.16675346  0.80464861  0.54353981  1
  H  H157  1  0.12908251  0.66770185  0.64411125  1
  H  H158  1  0.36969484  0.25164017  0.06962108  1
  H  H159  1  0.19475230  0.88858029  0.82943630  1
  H  H160  1  0.29729581  0.40668095  0.88514193  1
  H  H161  1  0.34455803  0.40796295  0.83496043  1
  H  H162  1  0.29936242  0.28168160  0.80842942  1
  H  H163  1  0.14754334  0.82048267  0.73680494  1
  H  H164  1  0.19281591  0.94754371  0.74996038  1
  H  H165  1  0.13874673  0.45958718  0.77077249  1
  H  H166  1  0.12791479  0.64985445  0.76497425  1
  H  H167  1  0.12975761  0.54782092  0.72191596  1
  H  H168  1  0.23733085  0.23435538  0.79520457  1
  H  H169  1  0.19710861  0.29827203  0.81278447  1
  H  H170  1  0.18218072  0.29463186  0.75671719  1
  H  H171  1  0.36251816  0.66609692  0.82304687  1
  H  H172  1  0.35102872  0.78877696  0.85676313  1
  H  H173  1  0.36128352  0.60207784  0.87108345  1
  H  H174  1  0.25283318  0.00122373  0.79247956  1
  H  H175  1  0.29522504  0.94811313  0.84458889  1
  H  H176  1  0.30690290  0.93701754  0.79920883  1
  H  H177  1  0.11135732  0.03911364  0.72318502  1
  H  H178  1  0.05090285  0.33419342  0.78122093  1
  H  H179  1  0.15919610  0.03885110  0.86298964  1
  H  H180  1  0.44426955  0.99688625  0.98595067  1
  H  H181  1  0.33324654  0.30464861  0.95646019  1
  H  H182  1  0.37091749  0.16770185  0.85588875  1
  H  H183  1  0.86969484  0.75164017  0.06962108  1
  H  H184  1  0.69475230  0.38858029  0.82943630  1
  H  H185  1  0.79729581  0.90668095  0.88514193  1
  H  H186  1  0.84455803  0.90796295  0.83496043  1
  H  H187  1  0.79936242  0.78168160  0.80842942  1
  H  H188  1  0.64754334  0.32048267  0.73680494  1
  H  H189  1  0.69281591  0.44754371  0.74996038  1
  H  H190  1  0.63874673  0.95958718  0.77077249  1
  H  H191  1  0.62791479  0.14985445  0.76497425  1
  H  H192  1  0.62975761  0.04782092  0.72191596  1
  H  H193  1  0.73733085  0.73435538  0.79520457  1
  H  H194  1  0.69710861  0.79827203  0.81278447  1
  H  H195  1  0.68218072  0.79463186  0.75671719  1
  H  H196  1  0.86251816  0.16609692  0.82304687  1
  H  H197  1  0.85102872  0.28877696  0.85676313  1
  H  H198  1  0.86128352  0.10207784  0.87108345  1
  H  H199  1  0.75283318  0.50122373  0.79247956  1
  H  H200  1  0.79522504  0.44811313  0.84458889  1
  H  H201  1  0.80690290  0.43701754  0.79920883  1
  H  H202  1  0.61135732  0.53911364  0.72318502  1
  H  H203  1  0.55090285  0.83419342  0.78122093  1
  H  H204  1  0.65919610  0.53885110  0.86298964  1
  H  H205  1  0.94426955  0.49688625  0.98595067  1
  H  H206  1  0.83324654  0.80464861  0.95646019  1
  H  H207  1  0.87091749  0.66770185  0.85588875  1
  C  C208  1  0.30996836  0.62360514  0.33080996  1
  C  C209  1  0.27636986  0.49826793  0.31215954  1
  C  C210  1  0.22866005  0.52825889  0.29226937  1
  C  C211  1  0.19725873  0.41050529  0.27666473  1
  C  C212  1  0.21418603  0.26583972  0.28029667  1
  C  C213  1  0.26184840  0.23528336  0.30189590  1
  C  C214  1  0.29325882  0.35307001  0.31838699  1
  C  C215  1  0.17998760  0.14107554  0.26362768  1
  C  C216  1  0.14607431  0.43944423  0.25763299  1
  C  C217  1  0.21066750  0.68286633  0.28895368  1
  C  C218  1  0.34433795  0.32277003  0.34342494  1
  C  C219  1  0.27982005  0.07965178  0.30968563  1
  C  C220  1  0.14001054  0.97705447  0.29385517  1
  C  C221  1  0.11036797  0.92004265  0.25254010  1
  C  C222  1  0.07929382  0.80746967  0.24846215  1
  C  C223  1  0.07563558  0.75194233  0.28473040  1
  C  C224  1  0.10466174  0.81026011  0.32576193  1
  C  C225  1  0.13686083  0.91938770  0.33050783  1
  C  C226  1  0.05059456  0.74338133  0.20467410  1
  C  C227  1  0.43944545  0.00687542  0.40430883  1
  C  C228  1  0.40917404  0.92688706  0.41920955  1
  C  C229  1  0.41668426  0.93528410  0.46252450  1
  C  C230  1  0.38898783  0.84912813  0.47539716  1
  C  C231  1  0.35393665  0.76139585  0.44526826  1
  C  C232  1  0.34618756  0.75374919  0.40159538  1
  C  C233  1  0.37477956  0.83665509  0.38901191  1
  C  C234  1  0.39722544  0.84172996  0.52185558  1
  C  C235  1  0.10099347  0.75695262  0.36489278  1
  C  C236  1  0.80996836  0.12360514  0.33080996  1
  C  C237  1  0.77636986  0.99826793  0.31215954  1
  C  C238  1  0.72866005  0.02825889  0.29226937  1
  C  C239  1  0.69725873  0.91050529  0.27666473  1
  C  C240  1  0.71418603  0.76583972  0.28029667  1
  C  C241  1  0.76184840  0.73528336  0.30189590  1
  C  C242  1  0.79325882  0.85307001  0.31838699  1
  C  C243  1  0.67998760  0.64107554  0.26362768  1
  C  C244  1  0.64607431  0.93944423  0.25763299  1
  C  C245  1  0.71066750  0.18286633  0.28895368  1
  C  C246  1  0.84433795  0.82277003  0.34342494  1
  C  C247  1  0.77982005  0.57965178  0.30968563  1
  C  C248  1  0.64001054  0.47705447  0.29385517  1
  C  C249  1  0.61036797  0.42004265  0.25254010  1
  C  C250  1  0.57929382  0.30746967  0.24846215  1
  C  C251  1  0.57563558  0.25194233  0.28473040  1
  C  C252  1  0.60466174  0.31026011  0.32576193  1
  C  C253  1  0.63686083  0.41938770  0.33050783  1
  C  C254  1  0.55059456  0.24338133  0.20467410  1
  C  C255  1  0.93944545  0.50687542  0.40430883  1
  C  C256  1  0.90917404  0.42688706  0.41920955  1
  C  C257  1  0.91668426  0.43528410  0.46252450  1
  C  C258  1  0.88898783  0.34912813  0.47539716  1
  C  C259  1  0.85393665  0.26139585  0.44526826  1
  C  C260  1  0.84618756  0.25374919  0.40159538  1
  C  C261  1  0.87477956  0.33665509  0.38901191  1
  C  C262  1  0.89722544  0.34172996  0.52185558  1
  C  C263  1  0.60099347  0.25695262  0.36489278  1
  C  C264  1  0.69003164  0.62360514  0.16919004  1
  C  C265  1  0.72363014  0.49826793  0.18784046  1
  C  C266  1  0.77133995  0.52825889  0.20773063  1
  C  C267  1  0.80274127  0.41050529  0.22333527  1
  C  C268  1  0.78581397  0.26583972  0.21970333  1
  C  C269  1  0.73815160  0.23528336  0.19810410  1
  C  C270  1  0.70674118  0.35307001  0.18161301  1
  C  C271  1  0.82001240  0.14107554  0.23637232  1
  C  C272  1  0.85392569  0.43944423  0.24236701  1
  C  C273  1  0.78933250  0.68286633  0.21104632  1
  C  C274  1  0.65566205  0.32277003  0.15657506  1
  C  C275  1  0.72017995  0.07965178  0.19031437  1
  C  C276  1  0.85998946  0.97705447  0.20614483  1
  C  C277  1  0.88963203  0.92004265  0.24745990  1
  C  C278  1  0.92070618  0.80746967  0.25153785  1
  C  C279  1  0.92436442  0.75194233  0.21526960  1
  C  C280  1  0.89533826  0.81026011  0.17423807  1
  C  C281  1  0.86313917  0.91938770  0.16949217  1
  C  C282  1  0.94940544  0.74338133  0.29532590  1
  C  C283  1  0.56055455  0.00687542  0.09569117  1
  C  C284  1  0.59082596  0.92688706  0.08079045  1
  C  C285  1  0.58331574  0.93528410  0.03747550  1
  C  C286  1  0.61101217  0.84912813  0.02460284  1
  C  C287  1  0.64606335  0.76139585  0.05473174  1
  C  C288  1  0.65381244  0.75374919  0.09840462  1
  C  C289  1  0.62522044  0.83665509  0.11098809  1
  C  C290  1  0.60277456  0.84172996  0.97814442  1
  C  C291  1  0.89900653  0.75695262  0.13510722  1
  C  C292  1  0.19003164  0.12360514  0.16919004  1
  C  C293  1  0.22363014  0.99826793  0.18784046  1
  C  C294  1  0.27133995  0.02825889  0.20773063  1
  C  C295  1  0.30274127  0.91050529  0.22333527  1
  C  C296  1  0.28581397  0.76583972  0.21970333  1
  C  C297  1  0.23815160  0.73528336  0.19810410  1
  C  C298  1  0.20674118  0.85307001  0.18161301  1
  C  C299  1  0.32001240  0.64107554  0.23637232  1
  C  C300  1  0.35392569  0.93944423  0.24236701  1
  C  C301  1  0.28933250  0.18286633  0.21104632  1
  C  C302  1  0.15566205  0.82277003  0.15657506  1
  C  C303  1  0.22017995  0.57965178  0.19031437  1
  C  C304  1  0.35998946  0.47705447  0.20614483  1
  C  C305  1  0.38963203  0.42004265  0.24745990  1
  C  C306  1  0.42070618  0.30746967  0.25153785  1
  C  C307  1  0.42436442  0.25194233  0.21526960  1
  C  C308  1  0.39533826  0.31026011  0.17423807  1
  C  C309  1  0.36313917  0.41938770  0.16949217  1
  C  C310  1  0.44940544  0.24338133  0.29532590  1
  C  C311  1  0.06055455  0.50687542  0.09569117  1
  C  C312  1  0.09082596  0.42688706  0.08079045  1
  C  C313  1  0.08331574  0.43528410  0.03747550  1
  C  C314  1  0.11101217  0.34912813  0.02460284  1
  C  C315  1  0.14606335  0.26139585  0.05473174  1
  C  C316  1  0.15381244  0.25374919  0.09840462  1
  C  C317  1  0.12522044  0.33665509  0.11098809  1
  C  C318  1  0.10277456  0.34172996  0.97814442  1
  C  C319  1  0.39900653  0.25695262  0.13510722  1
  C  C320  1  0.69003164  0.37639486  0.66919004  1
  C  C321  1  0.72363014  0.50173207  0.68784046  1
  C  C322  1  0.77133995  0.47174111  0.70773063  1
  C  C323  1  0.80274127  0.58949471  0.72333527  1
  C  C324  1  0.78581397  0.73416028  0.71970333  1
  C  C325  1  0.73815160  0.76471664  0.69810410  1
  C  C326  1  0.70674118  0.64692999  0.68161301  1
  C  C327  1  0.82001240  0.85892446  0.73637232  1
  C  C328  1  0.85392569  0.56055577  0.74236701  1
  C  C329  1  0.78933250  0.31713367  0.71104632  1
  C  C330  1  0.65566205  0.67722997  0.65657506  1
  C  C331  1  0.72017995  0.92034822  0.69031437  1
  C  C332  1  0.85998946  0.02294553  0.70614483  1
  C  C333  1  0.88963203  0.07995735  0.74745990  1
  C  C334  1  0.92070618  0.19253033  0.75153785  1
  C  C335  1  0.92436442  0.24805767  0.71526960  1
  C  C336  1  0.89533826  0.18973989  0.67423807  1
  C  C337  1  0.86313917  0.08061230  0.66949217  1
  C  C338  1  0.94940544  0.25661867  0.79532590  1
  C  C339  1  0.56055455  0.99312458  0.59569117  1
  C  C340  1  0.59082596  0.07311294  0.58079045  1
  C  C341  1  0.58331574  0.06471590  0.53747550  1
  C  C342  1  0.61101217  0.15087187  0.52460284  1
  C  C343  1  0.64606335  0.23860415  0.55473174  1
  C  C344  1  0.65381244  0.24625081  0.59840462  1
  C  C345  1  0.62522044  0.16334491  0.61098809  1
  C  C346  1  0.60277456  0.15827004  0.47814442  1
  C  C347  1  0.89900653  0.24304738  0.63510722  1
  C  C348  1  0.19003164  0.87639486  0.66919004  1
  C  C349  1  0.22363014  0.00173207  0.68784046  1
  C  C350  1  0.27133995  0.97174111  0.70773063  1
  C  C351  1  0.30274127  0.08949471  0.72333527  1
  C  C352  1  0.28581397  0.23416028  0.71970333  1
  C  C353  1  0.23815160  0.26471664  0.69810410  1
  C  C354  1  0.20674118  0.14692999  0.68161301  1
  C  C355  1  0.32001240  0.35892446  0.73637232  1
  C  C356  1  0.35392569  0.06055577  0.74236701  1
  C  C357  1  0.28933250  0.81713367  0.71104632  1
  C  C358  1  0.15566205  0.17722997  0.65657506  1
  C  C359  1  0.22017995  0.42034822  0.69031437  1
  C  C360  1  0.35998946  0.52294553  0.70614483  1
  C  C361  1  0.38963203  0.57995735  0.74745990  1
  C  C362  1  0.42070618  0.69253033  0.75153785  1
  C  C363  1  0.42436442  0.74805767  0.71526960  1
  C  C364  1  0.39533826  0.68973989  0.67423807  1
  C  C365  1  0.36313917  0.58061230  0.66949217  1
  C  C366  1  0.44940544  0.75661867  0.79532590  1
  C  C367  1  0.06055455  0.49312458  0.59569117  1
  C  C368  1  0.09082596  0.57311294  0.58079045  1
  C  C369  1  0.08331574  0.56471590  0.53747550  1
  C  C370  1  0.11101217  0.65087187  0.52460284  1
  C  C371  1  0.14606335  0.73860415  0.55473174  1
  C  C372  1  0.15381244  0.74625081  0.59840462  1
  C  C373  1  0.12522044  0.66334491  0.61098809  1
  C  C374  1  0.10277456  0.65827004  0.47814442  1
  C  C375  1  0.39900653  0.74304738  0.63510722  1
  C  C376  1  0.30996836  0.37639486  0.83080996  1
  C  C377  1  0.27636986  0.50173207  0.81215954  1
  C  C378  1  0.22866005  0.47174111  0.79226937  1
  C  C379  1  0.19725873  0.58949471  0.77666473  1
  C  C380  1  0.21418603  0.73416028  0.78029667  1
  C  C381  1  0.26184840  0.76471664  0.80189590  1
  C  C382  1  0.29325882  0.64692999  0.81838699  1
  C  C383  1  0.17998760  0.85892446  0.76362768  1
  C  C384  1  0.14607431  0.56055577  0.75763299  1
  C  C385  1  0.21066750  0.31713367  0.78895368  1
  C  C386  1  0.34433795  0.67722997  0.84342494  1
  C  C387  1  0.27982005  0.92034822  0.80968563  1
  C  C388  1  0.14001054  0.02294553  0.79385517  1
  C  C389  1  0.11036797  0.07995735  0.75254010  1
  C  C390  1  0.07929382  0.19253033  0.74846215  1
  C  C391  1  0.07563558  0.24805767  0.78473040  1
  C  C392  1  0.10466174  0.18973989  0.82576193  1
  C  C393  1  0.13686083  0.08061230  0.83050783  1
  C  C394  1  0.05059456  0.25661867  0.70467410  1
  C  C395  1  0.43944545  0.99312458  0.90430883  1
  C  C396  1  0.40917404  0.07311294  0.91920955  1
  C  C397  1  0.41668426  0.06471590  0.96252450  1
  C  C398  1  0.38898783  0.15087187  0.97539716  1
  C  C399  1  0.35393665  0.23860415  0.94526826  1
  C  C400  1  0.34618756  0.24625081  0.90159538  1
  C  C401  1  0.37477956  0.16334491  0.88901191  1
  C  C402  1  0.39722544  0.15827004  0.02185558  1
  C  C403  1  0.10099347  0.24304738  0.86489278  1
  C  C404  1  0.80996836  0.87639486  0.83080996  1
  C  C405  1  0.77636986  0.00173207  0.81215954  1
  C  C406  1  0.72866005  0.97174111  0.79226937  1
  C  C407  1  0.69725873  0.08949471  0.77666473  1
  C  C408  1  0.71418603  0.23416028  0.78029667  1
  C  C409  1  0.76184840  0.26471664  0.80189590  1
  C  C410  1  0.79325882  0.14692999  0.81838699  1
  C  C411  1  0.67998760  0.35892446  0.76362768  1
  C  C412  1  0.64607431  0.06055577  0.75763299  1
  C  C413  1  0.71066750  0.81713367  0.78895368  1
  C  C414  1  0.84433795  0.17722997  0.84342494  1
  C  C415  1  0.77982005  0.42034822  0.80968563  1
  C  C416  1  0.64001054  0.52294553  0.79385517  1
  C  C417  1  0.61036797  0.57995735  0.75254010  1
  C  C418  1  0.57929382  0.69253033  0.74846215  1
  C  C419  1  0.57563558  0.74805767  0.78473040  1
  C  C420  1  0.60466174  0.68973989  0.82576193  1
  C  C421  1  0.63686083  0.58061230  0.83050783  1
  C  C422  1  0.55059456  0.75661867  0.70467410  1
  C  C423  1  0.93944545  0.49312458  0.90430883  1
  C  C424  1  0.90917404  0.57311294  0.91920955  1
  C  C425  1  0.91668426  0.56471590  0.96252450  1
  C  C426  1  0.88898783  0.65087187  0.97539716  1
  C  C427  1  0.85393665  0.73860415  0.94526826  1
  C  C428  1  0.84618756  0.74625081  0.90159538  1
  C  C429  1  0.87477956  0.66334491  0.88901191  1
  C  C430  1  0.89722544  0.65827004  0.02185558  1
  C  C431  1  0.60099347  0.74304738  0.86489278  1
  N  N432  1  0.17096168  0.08652811  0.29881591  1
  N  N433  1  0.31162267  0.66613476  0.37237618  1
  N  N434  1  0.67096168  0.58652811  0.29881591  1
  N  N435  1  0.81162267  0.16613476  0.37237618  1
  N  N436  1  0.82903832  0.08652811  0.20118409  1
  N  N437  1  0.68837733  0.66613476  0.12762382  1
  N  N438  1  0.32903832  0.58652811  0.20118409  1
  N  N439  1  0.18837733  0.16613476  0.12762382  1
  N  N440  1  0.82903832  0.91347189  0.70118409  1
  N  N441  1  0.68837733  0.33386524  0.62762382  1
  N  N442  1  0.32903832  0.41347189  0.70118409  1
  N  N443  1  0.18837733  0.83386524  0.62762382  1
  N  N444  1  0.17096168  0.91347189  0.79881591  1
  N  N445  1  0.31162267  0.33386524  0.87237618  1
  N  N446  1  0.67096168  0.41347189  0.79881591  1
  N  N447  1  0.81162267  0.83386524  0.87237618  1
  O  O448  1  0.04411804  0.81814238  0.17026945  1
  O  O449  1  0.03334841  0.61509774  0.20162358  1
  O  O450  1  0.44725564  0.94674182  0.37397874  1
  O  O451  1  0.45777904  0.13010260  0.42115587  1
  O  O452  1  0.43416136  0.90045025  0.55116291  1
  O  O453  1  0.36755777  0.77425902  0.52975679  1
  O  O454  1  0.06577788  0.68669603  0.36104075  1
  O  O455  1  0.13529385  0.78809904  0.40218462  1
  O  O456  1  0.54411804  0.31814238  0.17026945  1
  O  O457  1  0.53334841  0.11509774  0.20162358  1
  O  O458  1  0.94725564  0.44674182  0.37397874  1
  O  O459  1  0.95777904  0.63010260  0.42115587  1
  O  O460  1  0.93416136  0.40045025  0.55116291  1
  O  O461  1  0.86755777  0.27425902  0.52975679  1
  O  O462  1  0.56577788  0.18669603  0.36104075  1
  O  O463  1  0.63529385  0.28809904  0.40218462  1
  O  O464  1  0.95588196  0.81814238  0.32973055  1
  O  O465  1  0.96665159  0.61509774  0.29837642  1
  O  O466  1  0.55274436  0.94674182  0.12602126  1
  O  O467  1  0.54222096  0.13010260  0.07884413  1
  O  O468  1  0.56583864  0.90045025  0.94883709  1
  O  O469  1  0.63244223  0.77425902  0.97024321  1
  O  O470  1  0.93422212  0.68669603  0.13895925  1
  O  O471  1  0.86470615  0.78809904  0.09781538  1
  O  O472  1  0.45588196  0.31814238  0.32973055  1
  O  O473  1  0.46665159  0.11509774  0.29837642  1
  O  O474  1  0.05274436  0.44674182  0.12602126  1
  O  O475  1  0.04222096  0.63010260  0.07884413  1
  O  O476  1  0.06583864  0.40045025  0.94883709  1
  O  O477  1  0.13244223  0.27425902  0.97024321  1
  O  O478  1  0.43422212  0.18669603  0.13895925  1
  O  O479  1  0.36470615  0.28809904  0.09781538  1
  O  O480  1  0.95588196  0.18185762  0.82973055  1
  O  O481  1  0.96665159  0.38490226  0.79837642  1
  O  O482  1  0.55274436  0.05325818  0.62602126  1
  O  O483  1  0.54222096  0.86989740  0.57884413  1
  O  O484  1  0.56583864  0.09954975  0.44883709  1
  O  O485  1  0.63244223  0.22574098  0.47024321  1
  O  O486  1  0.93422212  0.31330397  0.63895925  1
  O  O487  1  0.86470615  0.21190096  0.59781538  1
  O  O488  1  0.45588196  0.68185762  0.82973055  1
  O  O489  1  0.46665159  0.88490226  0.79837642  1
  O  O490  1  0.05274436  0.55325818  0.62602126  1
  O  O491  1  0.04222096  0.36989740  0.57884413  1
  O  O492  1  0.06583864  0.59954975  0.44883709  1
  O  O493  1  0.13244223  0.72574098  0.47024321  1
  O  O494  1  0.43422212  0.81330397  0.63895925  1
  O  O495  1  0.36470615  0.71190096  0.59781538  1
  O  O496  1  0.04411804  0.18185762  0.67026945  1
  O  O497  1  0.03334841  0.38490226  0.70162358  1
  O  O498  1  0.44725564  0.05325818  0.87397874  1
  O  O499  1  0.45777904  0.86989740  0.92115587  1
  O  O500  1  0.43416136  0.09954975  0.05116291  1
  O  O501  1  0.36755777  0.22574098  0.02975679  1
  O  O502  1  0.06577788  0.31330397  0.86104075  1
  O  O503  1  0.13529385  0.21190096  0.90218462  1
  O  O504  1  0.54411804  0.68185762  0.67026945  1
  O  O505  1  0.53334841  0.88490226  0.70162358  1
  O  O506  1  0.94725564  0.55325818  0.87397874  1
  O  O507  1  0.95777904  0.36989740  0.92115587  1
  O  O508  1  0.93416136  0.59954975  0.05116291  1
  O  O509  1  0.86755777  0.72574098  0.02975679  1
  O  O510  1  0.56577788  0.81330397  0.86104075  1
  O  O511  1  0.63529385  0.71190096  0.90218462  1
