# generated using pymatgen
data_CuH24(C4N3)4
_symmetry_space_group_name_H-M   'P 1'
_cell_length_a   10.08835400
_cell_length_b   15.26989200
_cell_length_c   21.85980191
_cell_angle_alpha   89.99999261
_cell_angle_beta   97.32027043
_cell_angle_gamma   89.99999625
_symmetry_Int_Tables_number   1
_chemical_formula_structural   CuH24(C4N3)4
_chemical_formula_sum   'Cu4 H96 C64 N48'
_cell_volume   3340.01369496
_cell_formula_units_Z   4
loop_
 _symmetry_equiv_pos_site_id
 _symmetry_equiv_pos_as_xyz
  1  'x, y, z'
loop_
 _atom_site_type_symbol
 _atom_site_label
 _atom_site_symmetry_multiplicity
 _atom_site_fract_x
 _atom_site_fract_y
 _atom_site_fract_z
 _atom_site_occupancy
 _atom_site_charge
  Cu  Cu0  1  0.62079892  0.23241204  0.26983769  1 0.254618
  Cu  Cu1  1  0.89399700  0.73485804  0.23130611  1 0.254635
  Cu  Cu2  1  0.41113210  0.76645441  0.74807062  1 0.254376
  Cu  Cu3  1  0.09725097  0.26964665  0.76723159  1 0.254423
  H  H4  1  0.39062547  0.35275762  0.31887478  1 0.10043
  H  H5  1  0.52799224  0.33049841  0.14533720  1 0.086622
  H  H6  1  0.18611381  0.50405411  0.20110024  1 0.094257
  H  H7  1  0.19396040  0.47063622  0.27958166  1 0.054851
  H  H8  1  0.38409694  0.60350776  0.23035004  1 0.087595
  H  H9  1  0.24040154  0.63159863  0.26462271  1 0.091472
  H  H10  1  0.48459727  0.53178104  0.32989212  1 0.077599
  H  H11  1  0.33597085  0.54994937  0.36176218  1 0.067442
  H  H12  1  0.49139009  0.65616052  0.40541330  1 0.034445
  H  H13  1  0.36612826  0.71233993  0.35551861  1 0.087766
  H  H14  1  0.66607858  0.60403748  0.28968309  1 0.081198
  H  H15  1  0.72531926  0.87600947  0.30736355  1 0.077457
  H  H16  1  0.19788008  0.21681770  0.36198860  1 0.082727
  H  H17  1  0.56155156  0.24257360  0.47662463  1 0.081326
  H  H18  1  0.34287646  0.11611127  0.56448117  1 0.081654
  H  H19  1  0.51416737  0.13463887  0.56106470  1 0.090568
  H  H20  1  0.35058114  0.98586291  0.49350142  1 0.088337
  H  H21  1  0.44587935  0.97479053  0.56673424  1 0.093282
  H  H22  1  0.57722382  0.02600005  0.30233653  1 0.093886
  H  H23  1  0.86180190  0.21176159  0.37675479  1 0.085577
  H  H24  1  0.03058882  0.01004038  0.39953152  1 0.08978
  H  H25  1  0.02100942  0.10891625  0.44059391  1 0.086074
  H  H26  1  0.87905968  0.03593194  0.51220347  1 0.08128
  H  H27  1  0.88294241  0.93733892  0.47040193  1 0.09165
  H  H28  1  0.11351980  0.86481801  0.18141054  1 0.100424
  H  H29  1  0.98594920  0.82952915  0.35602406  1 0.086726
  H  H30  1  0.32070172  0.00983121  0.30394887  1 0.094302
  H  H31  1  0.31954039  0.97680695  0.22562643  1 0.054229
  H  H32  1  0.12601747  0.10969417  0.27228607  1 0.087639
  H  H33  1  0.27189852  0.13737219  0.23957959  1 0.09147
  H  H34  1  0.02930506  0.03838790  0.17204281  1 0.077292
  H  H35  1  0.17980529  0.05643691  0.14162420  1 0.067334
  H  H36  1  0.02361956  0.16323131  0.09764109  1 0.033957
  H  H37  1  0.15077342  0.21820630  0.14706530  1 0.087678
  H  H38  1  0.86768492  0.11335538  0.22524169  1 0.080707
  H  H39  1  0.77753577  0.37878598  0.18857422  1 0.077667
  H  H40  1  0.27292640  0.72665889  0.13272221  1 0.0827
  H  H41  1  0.91928810  0.75490662  0.01127423  1 0.080973
  H  H42  1  0.13563458  0.61922135  0.92960585  1 0.081704
  H  H43  1  0.96266712  0.63691267  0.93315323  1 0.090546
  H  H44  1  0.13159627  0.49426819  0.00473359  1 0.088321
  H  H45  1  0.03554958  0.47750093  0.93220787  1 0.093284
  H  H46  1  0.91252076  0.52597215  0.20452442  1 0.094004
  H  H47  1  0.66046700  0.72361601  0.12065723  1 0.084903
  H  H48  1  0.46702131  0.51917439  0.10368812  1 0.089787
  H  H49  1  0.47188472  0.62506188  0.07085659  1 0.086081
  H  H50  1  0.61068177  0.56880241  0.99229115  1 0.081223
  H  H51  1  0.61355255  0.46352083  0.02595066  1 0.091626
  H  H52  1  0.59959694  0.63918094  0.68347524  1 0.100467
  H  H53  1  0.56134693  0.67687433  0.87145796  1 0.086689
  H  H54  1  0.83400823  0.48277073  0.78704768  1 0.094342
  H  H55  1  0.81252281  0.52232583  0.70970408  1 0.054017
  H  H56  1  0.62376440  0.39362123  0.76398358  1 0.087747
  H  H57  1  0.75448571  0.36272113  0.72190827  1 0.091491
  H  H58  1  0.50679947  0.47105622  0.67106833  1 0.076852
  H  H59  1  0.64537060  0.45503568  0.63117217  1 0.06756
  H  H60  1  0.47851523  0.35123132  0.59164286  1 0.033632
  H  H61  1  0.61426632  0.29278324  0.63321623  1 0.087746
  H  H62  1  0.31399462  0.39489278  0.70435606  1 0.080305
  H  H63  1  0.29660425  0.12000469  0.70745287  1 0.07759
  H  H64  1  0.78258876  0.77811568  0.65332324  1 0.082714
  H  H65  1  0.44526505  0.74557648  0.52217172  1 0.080595
  H  H66  1  0.66304177  0.88480341  0.44804057  1 0.081799
  H  H67  1  0.49059767  0.86714198  0.44862951  1 0.090569
  H  H68  1  0.65482218  0.01184769  0.52081427  1 0.088327
  H  H69  1  0.56080898  0.02604917  0.44756092  1 0.093282
  H  H70  1  0.41259692  0.97803760  0.71765800  1 0.093948
  H  H71  1  0.18570413  0.76885893  0.63398266  1 0.08414
  H  H72  1  0.97483843  0.95928844  0.60710708  1 0.089797
  H  H73  1  0.00228541  0.85791808  0.57147373  1 0.08613
  H  H74  1  0.13350418  0.93117897  0.49728818  1 0.081188
  H  H75  1  0.12955166  0.03116758  0.53768047  1 0.091619
  H  H76  1  0.87781065  0.13942863  0.81612998  1 0.10047
  H  H77  1  0.03488614  0.15809752  0.64707349  1 0.086623
  H  H78  1  0.70019197  0.97502342  0.69953289  1 0.094318
  H  H79  1  0.69652326  0.01255147  0.77661345  1 0.054709
  H  H80  1  0.90434560  0.88440167  0.73617106  1 0.087684
  H  H81  1  0.75849632  0.85333794  0.76758532  1 0.091486
  H  H82  1  0.99092834  0.96172314  0.83454074  1 0.07751
  H  H83  1  0.83781127  0.94357919  0.86366908  1 0.067423
  H  H84  1  0.00322572  0.84072603  0.91131655  1 0.034065
  H  H85  1  0.87436898  0.78261535  0.86446864  1 0.087716
  H  H86  1  0.23993154  0.85392338  0.86031394  1 0.081087
  H  H87  1  0.14393784  0.64478797  0.73771711  1 0.077208
  H  H88  1  0.68732903  0.26725749  0.85849937  1 0.082747
  H  H89  1  0.05643972  0.26818894  0.97063529  1 0.080905
  H  H90  1  0.82384189  0.39249340  0.05436409  1 0.081716
  H  H91  1  0.99604943  0.37629847  0.05273957  1 0.090567
  H  H92  1  0.82657915  0.51615444  0.97752324  1 0.08832
  H  H93  1  0.92139703  0.53513844  0.05017157  1 0.093249
  H  H94  1  0.06026955  0.48307332  0.79062983  1 0.093826
  H  H95  1  0.33378984  0.29464134  0.87097312  1 0.085271
  H  H96  1  0.50764767  0.50232377  0.89046851  1 0.089768
  H  H97  1  0.50706319  0.39790768  0.92484209  1 0.086092
  H  H98  1  0.36297533  0.45460368  0.00194110  1 0.081257
  H  H99  1  0.36043002  0.55929606  0.96742727  1 0.091633
  C  C100  1  0.40610787  0.36388857  0.27111880  1 0.03961
  C  C101  1  0.47429661  0.35331893  0.18223801  1 0.120307
  C  C102  1  0.25349500  0.49514282  0.24427598  1 -0.069304
  C  C103  1  0.32047432  0.58226167  0.26493856  1 -0.170804
  C  C104  1  0.40004411  0.57760694  0.32925091  1 -0.160954
  C  C105  1  0.44909108  0.66553616  0.35645056  1 -0.063633
  C  C106  1  0.65490731  0.67291316  0.29977919  1 0.0134
  C  C107  1  0.68119648  0.81122939  0.30818802  1 0.118759
  C  C108  1  0.27904815  0.20780123  0.39919910  1 0.109806
  C  C109  1  0.46266535  0.22264364  0.45582676  1 0.064334
  C  C110  1  0.42310868  0.10668206  0.53556348  1 -0.078777
  C  C111  1  0.44083123  0.00945978  0.52233150  1 -0.169533
  C  C112  1  0.66431191  0.05583028  0.32849186  1 0.109128
  C  C113  1  0.80784636  0.15148336  0.36501220  1 0.034735
  C  C114  1  0.96731654  0.04780333  0.42756365  1 -0.08735
  C  C115  1  0.94106116  0.99645809  0.48469552  1 -0.154388
  C  C116  1  0.10192886  0.87155455  0.22991978  1 0.03962
  C  C117  1  0.03786657  0.85508947  0.31931143  1 0.120362
  C  C118  1  0.25673311  0.00101477  0.25980114  1 -0.069213
  C  C119  1  0.19131415  0.08825601  0.23842942  1 -0.170811
  C  C120  1  0.11435247  0.08398016  0.17357404  1 -0.160769
  C  C121  1  0.06679683  0.17217951  0.14647543  1 -0.063417
  C  C122  1  0.87085371  0.18067280  0.20985647  1 0.013296
  C  C123  1  0.82822295  0.31582700  0.19132893  1 0.118981
  C  C124  1  0.19441337  0.71761572  0.09430857  1 0.109726
  C  C125  1  0.01580829  0.73377268  0.03426551  1 0.064424
  C  C126  1  0.05548448  0.61156239  0.95891528  1 -0.078749
  C  C127  1  0.04031587  0.51512073  0.97537015  1 -0.16953
  C  C128  1  0.83039633  0.55927545  0.17707396  1 0.109236
  C  C129  1  0.70443520  0.66107884  0.13519889  1 0.034894
  C  C130  1  0.52711026  0.56317722  0.07831169  1 -0.087294
  C  C131  1  0.55216039  0.52278701  0.01696714  1 -0.154377
  C  C132  1  0.60744738  0.63101115  0.73326990  1 0.039847
  C  C133  1  0.59081268  0.64998020  0.82923813  1 0.120428
  C  C134  1  0.75954764  0.49758264  0.74734010  1 -0.069154
  C  C135  1  0.68059941  0.41471867  0.72681096  1 -0.170786
  C  C136  1  0.58901848  0.42520700  0.66594783  1 -0.160686
  C  C137  1  0.53305138  0.33907446  0.63824212  1 -0.063359
  C  C138  1  0.33593734  0.32599072  0.69935490  1 0.013327
  C  C139  1  0.33075416  0.18638911  0.70109055  1 0.118904
  C  C140  1  0.70820942  0.78680019  0.61320916  1 0.109831
  C  C141  1  0.53753161  0.76853344  0.54825188  1 0.064717
  C  C142  1  0.58086197  0.89318867  0.47600865  1 -0.078758
  C  C143  1  0.56452742  0.98980456  0.49126389  1 -0.169559
  C  C144  1  0.33651802  0.94078535  0.68914375  1 0.109184
  C  C145  1  0.22358218  0.83333838  0.64733817  1 0.035142
  C  C146  1  0.04590663  0.92285397  0.58249574  1 -0.087284
  C  C147  1  0.07156683  0.97168881  0.52420152  1 -0.154415
  C  C148  1  0.89894719  0.12708313  0.76935588  1 0.03973
  C  C149  1  0.97788140  0.13549712  0.68285778  1 0.12033
  C  C150  1  0.76209893  0.98863638  0.74357053  1 -0.069314
  C  C151  1  0.83468819  0.90527879  0.76825083  1 -0.170816
  C  C152  1  0.90703518  0.91532326  0.83365855  1 -0.160958
  C  C153  1  0.95773536  0.82882294  0.86341045  1 -0.063413
  C  C154  1  0.18814019  0.80277335  0.83237352  1 0.013616
  C  C155  1  0.13555537  0.69727031  0.77047041  1 0.118564
  C  C156  1  0.76812820  0.28293891  0.89463193  1 0.109829
  C  C157  1  0.95470544  0.28139692  0.95001936  1 0.064448
  C  C158  1  0.90437573  0.40043544  0.02545676  1 -0.078761
  C  C159  1  0.91765824  0.49641795  0.00747175  1 -0.169537
  C  C160  1  0.14552932  0.45251255  0.81761755  1 0.109061
  C  C161  1  0.28234804  0.35536718  0.85783584  1 0.035011
  C  C162  1  0.44856520  0.45836048  0.91632290  1 -0.08734
  C  C163  1  0.42166118  0.50009810  0.97694914  1 -0.154403
  N  N164  1  0.48873168  0.31660397  0.23972387  1 -0.294503
  N  N165  1  0.38909876  0.41993496  0.17546509  1 -0.282751
  N  N166  1  0.34677317  0.42655379  0.23261588  1 0.134403
  N  N167  1  0.56695000  0.79716384  0.33119308  1 -0.306875
  N  N168  1  0.54939804  0.70813335  0.32441352  1 0.123197
  N  N169  1  0.73900982  0.73779639  0.28814638  1 -0.323343
  N  N170  1  0.39440225  0.25505036  0.40440231  1 -0.37978
  N  N171  1  0.39095174  0.15895576  0.47971795  1 0.136399
  N  N172  1  0.27149164  0.14888481  0.44375831  1 -0.279545
  N  N173  1  0.69196179  0.14314068  0.32684614  1 -0.290097
  N  N174  1  0.75447863  0.00935852  0.36491927  1 -0.266769
  N  N175  1  0.84465123  0.07161890  0.38875386  1 0.133557
  N  N176  1  0.02112211  0.82182436  0.26084529  1 -0.294372
  N  N177  1  0.12270028  0.92180147  0.32734887  1 -0.282707
  N  N178  1  0.16254815  0.93234722  0.26989928  1 0.134576
  N  N179  1  0.93995484  0.30231935  0.16601414  1 -0.306933
  N  N180  1  0.96739758  0.21534093  0.17876443  1 0.123169
  N  N181  1  0.78185782  0.24401866  0.21868272  1 -0.323328
  N  N182  1  0.08167759  0.76744634  0.08580303  1 -0.379819
  N  N183  1  0.08653346  0.66698127  0.01334201  1 0.136436
  N  N184  1  0.20284313  0.65595019  0.05162800  1 -0.279452
  N  N185  1  0.81866534  0.64816666  0.17365144  1 -0.290108
  N  N186  1  0.73090248  0.51604521  0.14400325  1 -0.266811
  N  N187  1  0.65077790  0.58202144  0.11774445  1 0.133556
  N  N188  1  0.54965618  0.68355899  0.77201805  1 -0.294363
  N  N189  1  0.66968422  0.58032391  0.82885487  1 -0.282604
  N  N190  1  0.67917594  0.56865615  0.76726197  1 0.134632
  N  N191  1  0.44074946  0.20374937  0.67528228  1 -0.306914
  N  N192  1  0.44442501  0.29400135  0.67531159  1 0.123132
  N  N193  1  0.26311485  0.25838067  0.71664435  1 -0.323268
  N  N194  1  0.59885531  0.73437302  0.60062186  1 -0.379885
  N  N195  1  0.60727997  0.83807382  0.53082180  1 0.136427
  N  N196  1  0.71844730  0.85053956  0.57222479  1 -0.279481
  N  N197  1  0.33083167  0.85150310  0.68889691  1 -0.290078
  N  N198  1  0.23976922  0.97913890  0.65115792  1 -0.266825
  N  N199  1  0.16786590  0.90956340  0.62489455  1 0.133508
  N  N200  1  0.98069779  0.17610072  0.73880285  1 -0.294419
  N  N201  1  0.90023538  0.06513128  0.67651128  1 -0.282671
  N  N202  1  0.85073967  0.06014055  0.73202731  1 0.134416
  N  N203  1  0.02048115  0.71625727  0.79159450  1 -0.306845
  N  N204  1  0.05572542  0.78461477  0.83124331  1 0.123155
  N  N205  1  0.24101510  0.74818257  0.79378072  1 -0.323277
  N  N206  1  0.88925517  0.24229552  0.90045519  1 -0.379755
  N  N207  1  0.87588855  0.34239094  0.97234743  1 0.136413
  N  N208  1  0.75448879  0.34398567  0.93710309  1 -0.27948
  N  N209  1  0.16659696  0.36414593  0.81972714  1 -0.290013
  N  N210  1  0.23982270  0.49905345  0.85149078  1 -0.266688
  N  N211  1  0.32642502  0.43594246  0.87696814  1 0.133542
