# generated using pymatgen
data_AgH8C9N4
_symmetry_space_group_name_H-M   'P 1'
_cell_length_a   27.65432389
_cell_length_b   27.65416726
_cell_length_c   10.49256976
_cell_angle_alpha   89.99923521
_cell_angle_beta   90.00015098
_cell_angle_gamma   119.99915671
_symmetry_Int_Tables_number   1
_chemical_formula_structural   AgH8C9N4
_chemical_formula_sum   'Ag18 H144 C162 N72'
_cell_volume   6949.28011200
_cell_formula_units_Z   18
loop_
 _symmetry_equiv_pos_site_id
 _symmetry_equiv_pos_as_xyz
  1  'x, y, z'
loop_
 _atom_site_type_symbol
 _atom_site_label
 _atom_site_symmetry_multiplicity
 _atom_site_fract_x
 _atom_site_fract_y
 _atom_site_fract_z
 _atom_site_occupancy
 _atom_site_charge
  Ag  Ag0  1  0.57875850  0.06523897  0.16132857  1 0.213241
  Ag  Ag1  1  0.24542429  0.39856136  0.49469565  1 0.213813
  Ag  Ag2  1  0.91208779  0.73192208  0.82805096  1 0.213734
  Ag  Ag3  1  0.93475884  0.51352284  0.16133441  1 0.213326
  Ag  Ag4  1  0.60143503  0.84685774  0.49469300  1 0.213844
  Ag  Ag5  1  0.26809136  0.18017109  0.82803667  1 0.213753
  Ag  Ag6  1  0.48646824  0.42123399  0.16134849  1 0.213314
  Ag  Ag7  1  0.15313699  0.75457759  0.49470297  1 0.213837
  Ag  Ag8  1  0.81983857  0.08791727  0.82803474  1 0.213784
  Ag  Ag9  1  0.42124150  0.93476103  0.83867143  1 0.213241
  Ag  Ag10  1  0.08791221  0.26807792  0.17194904  1 0.213734
  Ag  Ag11  1  0.75457571  0.60143864  0.50530435  1 0.213813
  Ag  Ag12  1  0.06524116  0.48647716  0.83866559  1 0.213326
  Ag  Ag13  1  0.73190864  0.81982891  0.17196333  1 0.213753
  Ag  Ag14  1  0.39856497  0.15314226  0.50530700  1 0.213844
  Ag  Ag15  1  0.51353176  0.57876601  0.83865151  1 0.213314
  Ag  Ag16  1  0.18016143  0.91208273  0.17196526  1 0.213784
  Ag  Ag17  1  0.84686301  0.24542241  0.50529703  1 0.213837
  H  H18  1  0.60580497  0.99955597  0.95268348  1 0.075217
  H  H19  1  0.79306676  0.22954999  0.24744575  1 0.086077
  H  H20  1  0.63759343  0.07632663  0.46876234  1 0.083543
  H  H21  1  0.69150582  0.00839552  0.85302859  1 0.082167
  H  H22  1  0.78030083  0.17627484  0.95758419  1 0.089336
  H  H23  1  0.72952572  0.13475767  0.57795161  1 0.085689
  H  H24  1  0.65725193  0.17641907  0.09643586  1 0.117025
  H  H25  1  0.73138938  0.21779242  0.07287738  1 0.119963
  H  H26  1  0.27247748  0.33289025  0.28599248  1 0.07502
  H  H27  1  0.45973810  0.56288604  0.58078569  1 0.085892
  H  H28  1  0.30425557  0.40967454  0.80210270  1 0.083679
  H  H29  1  0.35817824  0.34172468  0.18637336  1 0.082359
  H  H30  1  0.44697060  0.50960204  0.29092357  1 0.089332
  H  H31  1  0.39618642  0.46809289  0.91128382  1 0.084993
  H  H32  1  0.32391606  0.50974075  0.42976757  1 0.116354
  H  H33  1  0.39805331  0.55112387  0.40619545  1 0.119955
  H  H34  1  0.93914066  0.66622558  0.61935194  1 0.075458
  H  H35  1  0.12639830  0.89621246  0.91411776  1 0.086449
  H  H36  1  0.97091927  0.74299030  0.13542224  1 0.083453
  H  H37  1  0.02483994  0.67506123  0.51970937  1 0.082788
  H  H38  1  0.11363810  0.84293864  0.62425534  1 0.089716
  H  H39  1  0.06285071  0.80141771  0.24460814  1 0.085438
  H  H40  1  0.99059281  0.84309042  0.76309153  1 0.115914
  H  H41  1  0.06473234  0.88446327  0.73954148  1 0.119628
  H  H42  1  0.00043827  0.60624498  0.95266930  1 0.075264
  H  H43  1  0.77045305  0.56352258  0.24744533  1 0.086071
  H  H44  1  0.92366773  0.56125830  0.46877069  1 0.083464
  H  H45  1  0.99160151  0.68311100  0.85304247  1 0.082256
  H  H46  1  0.82372527  0.60403101  0.95760137  1 0.089318
  H  H47  1  0.86524265  0.59476918  0.57795149  1 0.085661
  H  H48  1  0.82358344  0.48083413  0.09644339  1 0.117003
  H  H49  1  0.78220740  0.51359617  0.07288497  1 0.120117
  H  H50  1  0.66710898  0.93958183  0.28600073  1 0.074996
  H  H51  1  0.43711945  0.89685315  0.58075243  1 0.085958
  H  H52  1  0.59032927  0.89458822  0.80208712  1 0.083683
  H  H53  1  0.65827112  0.01644534  0.18636437  1 0.082257
  H  H54  1  0.49039288  0.93735537  0.29090618  1 0.089427
  H  H55  1  0.53190888  0.92810008  0.91125205  1 0.085032
  H  H56  1  0.49024830  0.81416199  0.42975542  1 0.116399
  H  H57  1  0.44887495  0.84692792  0.40619507  1 0.120103
  H  H58  1  0.33377329  0.27291465  0.61934730  1 0.075471
  H  H59  1  0.10378090  0.23018207  0.91412521  1 0.08643
  H  H60  1  0.25700595  0.22791879  0.13542066  1 0.083427
  H  H61  1  0.32493942  0.34978289  0.51970644  1 0.082657
  H  H62  1  0.15706090  0.27070652  0.62425369  1 0.089653
  H  H63  1  0.19858185  0.26143061  0.24460888  1 0.085532
  H  H64  1  0.15691559  0.14750698  0.76309091  1 0.116032
  H  H65  1  0.11553525  0.18026675  0.73954421  1 0.119591
  H  H66  1  0.39374746  0.39418749  0.95265420  1 0.075247
  H  H67  1  0.43647793  0.20693060  0.24745211  1 0.086104
  H  H68  1  0.43875344  0.36241692  0.46876142  1 0.083485
  H  H69  1  0.31688868  0.30848576  0.85303053  1 0.082345
  H  H70  1  0.39597760  0.21969670  0.95759417  1 0.089299
  H  H71  1  0.40523556  0.27048069  0.57794816  1 0.085616
  H  H72  1  0.51916646  0.34274904  0.09643157  1 0.117
  H  H73  1  0.48640519  0.26861108  0.07287418  1 0.120066
  H  H74  1  0.06041382  0.72752530  0.28600063  1 0.075019
  H  H75  1  0.10314538  0.54026378  0.58077697  1 0.085865
  H  H76  1  0.10540780  0.69574294  0.80208547  1 0.083694
  H  H77  1  0.98355452  0.64182655  0.18634938  1 0.082228
  H  H78  1  0.06263845  0.55303152  0.29091848  1 0.089403
  H  H79  1  0.07190002  0.60381219  0.91126914  1 0.085021
  H  H80  1  0.18583078  0.67607986  0.42975649  1 0.116294
  H  H81  1  0.15306615  0.60194056  0.40620747  1 0.119949
  H  H82  1  0.72708158  0.06085848  0.61935530  1 0.075488
  H  H83  1  0.76982265  0.87360378  0.91413000  1 0.086461
  H  H84  1  0.77206860  0.02908165  0.13541572  1 0.083486
  H  H85  1  0.65022233  0.97516141  0.51970575  1 0.082889
  H  H86  1  0.72930098  0.88636235  0.62425908  1 0.089736
  H  H87  1  0.73857303  0.93715206  0.24461126  1 0.085437
  H  H88  1  0.85249500  0.00941103  0.76309245  1 0.115986
  H  H89  1  0.81973458  0.93527144  0.73954879  1 0.119724
  H  H90  1  0.39419503  0.00044403  0.04731652  1 0.075217
  H  H91  1  0.20693324  0.77045001  0.75255425  1 0.086077
  H  H92  1  0.36240657  0.92367337  0.53123766  1 0.083543
  H  H93  1  0.30849418  0.99160448  0.14697141  1 0.082167
  H  H94  1  0.21969917  0.82372516  0.04241581  1 0.089336
  H  H95  1  0.27047428  0.86524233  0.42204839  1 0.085689
  H  H96  1  0.34274807  0.82358093  0.90356414  1 0.117025
  H  H97  1  0.26861062  0.78220758  0.92712262  1 0.119963
  H  H98  1  0.06085934  0.33377442  0.38064806  1 0.075458
  H  H99  1  0.87360170  0.10378754  0.08588224  1 0.086449
  H  H100  1  0.02908073  0.25700970  0.86457776  1 0.083453
  H  H101  1  0.97516006  0.32493877  0.48029063  1 0.082788
  H  H102  1  0.88636190  0.15706136  0.37574466  1 0.089716
  H  H103  1  0.93714929  0.19858229  0.75539186  1 0.085438
  H  H104  1  0.00940719  0.15690958  0.23690847  1 0.115914
  H  H105  1  0.93526766  0.11553673  0.26045852  1 0.119628
  H  H106  1  0.72752252  0.66710975  0.71400752  1 0.07502
  H  H107  1  0.54026190  0.43711396  0.41921431  1 0.085892
  H  H108  1  0.69574443  0.59032546  0.19789730  1 0.083678
  H  H109  1  0.64182176  0.65827532  0.81362664  1 0.082359
  H  H110  1  0.55302940  0.49039796  0.70907643  1 0.089332
  H  H111  1  0.60381358  0.53190711  0.08871618  1 0.084993
  H  H112  1  0.67608394  0.49025925  0.57023243  1 0.116353
  H  H113  1  0.60194669  0.44887613  0.59380455  1 0.119954
  H  H114  1  0.99956173  0.39375502  0.04733070  1 0.075264
  H  H115  1  0.22954695  0.43647742  0.75255467  1 0.086071
  H  H116  1  0.07633227  0.43874170  0.53122931  1 0.083464
  H  H117  1  0.00839849  0.31688900  0.14695753  1 0.082256
  H  H118  1  0.17627473  0.39596899  0.04239863  1 0.089318
  H  H119  1  0.13475735  0.40523082  0.42204851  1 0.085661
  H  H120  1  0.17641656  0.51916587  0.90355661  1 0.117003
  H  H121  1  0.21779260  0.48640383  0.92711503  1 0.120117
  H  H122  1  0.66622671  0.72708535  0.38065270  1 0.075471
  H  H123  1  0.89621910  0.76981793  0.08587479  1 0.08643
  H  H124  1  0.74299405  0.77208121  0.86457934  1 0.083427
  H  H125  1  0.67506058  0.65021711  0.48029356  1 0.082657
  H  H126  1  0.84293910  0.72929348  0.37574631  1 0.089653
  H  H127  1  0.80141815  0.73856939  0.75539112  1 0.085532
  H  H128  1  0.84308441  0.85249302  0.23690909  1 0.116032
  H  H129  1  0.88446475  0.81973325  0.26045579  1 0.119591
  H  H130  1  0.33289102  0.06041817  0.71399927  1 0.074996
  H  H131  1  0.56288055  0.10314685  0.41924757  1 0.085958
  H  H132  1  0.40967073  0.10541178  0.19791288  1 0.083682
  H  H133  1  0.34172888  0.98355466  0.81363563  1 0.082257
  H  H134  1  0.50960712  0.06264463  0.70909382  1 0.089427
  H  H135  1  0.46809112  0.07189992  0.08874795  1 0.085032
  H  H136  1  0.50975170  0.18583801  0.57024458  1 0.116399
  H  H137  1  0.55112505  0.15307208  0.59380493  1 0.120103
  H  H138  1  0.60625254  0.60581251  0.04734580  1 0.075247
  H  H139  1  0.56352207  0.79306940  0.75254789  1 0.086104
  H  H140  1  0.56124656  0.63758308  0.53123858  1 0.083485
  H  H141  1  0.68311132  0.69151424  0.14696947  1 0.082345
  H  H142  1  0.60402240  0.78030330  0.04240583  1 0.089298
  H  H143  1  0.59476444  0.72951931  0.42205184  1 0.085616
  H  H144  1  0.48083354  0.65725096  0.90356843  1 0.117
  H  H145  1  0.51359481  0.73138892  0.92712582  1 0.120065
  H  H146  1  0.27291842  0.93914152  0.38064470  1 0.075488
  H  H147  1  0.23017735  0.12639622  0.08587000  1 0.086461
  H  H148  1  0.22793140  0.97091835  0.86458428  1 0.083486
  H  H149  1  0.34977767  0.02483859  0.48029425  1 0.082889
  H  H150  1  0.27069902  0.11363765  0.37574092  1 0.089736
  H  H151  1  0.26142697  0.06284794  0.75538874  1 0.085437
  H  H152  1  0.14750500  0.99058897  0.23690755  1 0.115986
  H  H153  1  0.18026542  0.06472856  0.26045121  1 0.119724
  H  H154  1  0.93958618  0.27247470  0.71399937  1 0.075019
  H  H155  1  0.89685462  0.45973622  0.41922303  1 0.085865
  H  H156  1  0.89459220  0.30425706  0.19791453  1 0.083694
  H  H157  1  0.01644548  0.35817345  0.81365062  1 0.082228
  H  H158  1  0.93736155  0.44696848  0.70908152  1 0.089402
  H  H159  1  0.92809998  0.39618781  0.08873086  1 0.085021
  H  H160  1  0.81416922  0.32392014  0.57024351  1 0.116294
  H  H161  1  0.84693385  0.39805944  0.59379253  1 0.119949
  C  C162  1  0.64488779  0.03915052  0.95423511  1 0.003038
  C  C163  1  0.75789234  0.19561585  0.29753046  1 -0.049073
  C  C164  1  0.70611478  0.16551902  0.23929788  1 0.203803
  C  C165  1  0.67209560  0.11166285  0.41991809  1 0.013124
  C  C166  1  0.69213293  0.04428272  0.89775354  1 -0.00847
  C  C167  1  0.69431060  0.13121611  0.01955601  1 0.197211
  C  C168  1  0.74117931  0.13640336  0.95753778  1 -0.051232
  C  C169  1  0.72304180  0.14284092  0.47968132  1 -0.025164
  C  C170  1  0.69726824  0.17682090  0.10296933  1 -0.298103
  C  C171  1  0.31154218  0.37247091  0.28758002  1 0.002479
  C  C172  1  0.42456522  0.52895310  0.63086037  1 -0.048899
  C  C173  1  0.37278402  0.49885493  0.57261664  1 0.203782
  C  C174  1  0.33875941  0.44500815  0.75325293  1 0.013054
  C  C175  1  0.35881547  0.37760337  0.23107987  1 -0.006697
  C  C176  1  0.36097678  0.46454020  0.35289388  1 0.196308
  C  C177  1  0.40785389  0.46972849  0.29086944  1 -0.050192
  C  C178  1  0.38970781  0.47618122  0.81301445  1 -0.024431
  C  C179  1  0.36393689  0.51014892  0.43629061  1 -0.297022
  C  C180  1  0.97820942  0.70581055  0.62093312  1 0.004276
  C  C181  1  0.09122851  0.86228488  0.96419544  1 -0.049063
  C  C182  1  0.03944141  0.83218288  0.90594832  1 0.203169
  C  C183  1  0.00541452  0.77832064  0.08657323  1 0.014265
  C  C184  1  0.02547531  0.71094126  0.56442461  1 -0.009495
  C  C185  1  0.02764336  0.79788276  0.68622392  1 0.1958
  C  C186  1  0.07452346  0.80306897  0.62420067  1 -0.052071
  C  C187  1  0.05637078  0.80950262  0.14634986  1 -0.025864
  C  C188  1  0.03061055  0.84349085  0.76962582  1 -0.295538
  C  C189  1  0.96085010  0.60572899  0.95423892  1 0.003063
  C  C190  1  0.80438469  0.56228019  0.29753586  1 -0.049118
  C  C191  1  0.83448087  0.54059445  0.23930196  1 0.203834
  C  C192  1  0.88833341  0.56042687  0.41992025  1 0.013138
  C  C193  1  0.95571692  0.64786021  0.89774851  1 -0.008427
  C  C194  1  0.86878385  0.56309240  0.01956347  1 0.197438
  C  C195  1  0.86359660  0.60478257  0.95754411  1 -0.051229
  C  C196  1  0.85715644  0.58020080  0.47968228  1 -0.025072
  C  C197  1  0.82317794  0.52044759  0.10297356  1 -0.29834
  C  C198  1  0.62752489  0.93906241  0.28757636  1 0.002524
  C  C199  1  0.47104717  0.89561197  0.63084076  1 -0.048929
  C  C200  1  0.50114691  0.87392113  0.57260341  1 0.204001
  C  C201  1  0.55499676  0.89375045  0.75323235  1 0.013395
  C  C202  1  0.62239030  0.98120096  0.23107070  1 -0.00655
  C  C203  1  0.53545642  0.89642367  0.35288161  1 0.196206
  C  C204  1  0.53026504  0.93811456  0.29084796  1 -0.050334
  C  C205  1  0.52381878  0.91353166  0.81299722  1 -0.024718
  C  C206  1  0.48984615  0.85377936  0.43628151  1 -0.297222
  C  C207  1  0.29418687  0.27240414  0.62092953  1 0.004187
  C  C208  1  0.13771659  0.22894006  0.96419691  1 -0.049278
  C  C209  1  0.16781294  0.20725913  0.90595277  1 0.203459
  C  C210  1  0.22167281  0.22709037  0.08657298  1 0.014358
  C  C211  1  0.28905734  0.31453390  0.56443211  1 -0.009314
  C  C212  1  0.20211663  0.22976701  0.68622355  1 0.195716
  C  C213  1  0.19693152  0.27145835  0.62420764  1 -0.051883
  C  C214  1  0.19049789  0.24686328  0.14633810  1 -0.026002
  C  C215  1  0.15650874  0.18711947  0.76962583  1 -0.295711
  C  C216  1  0.39426786  0.35512023  0.95423161  1 0.00316
  C  C217  1  0.43771998  0.24210315  0.29753132  1 -0.049022
  C  C218  1  0.45940845  0.29388788  0.23929209  1 0.203668
  C  C219  1  0.43957962  0.32791221  0.41991400  1 0.013128
  C  C220  1  0.35213685  0.30785253  0.89773675  1 -0.008594
  C  C221  1  0.43690803  0.30569160  0.01955770  1 0.197394
  C  C222  1  0.39522141  0.25881367  0.95753685  1 -0.051268
  C  C223  1  0.41980170  0.27695994  0.47968124  1 -0.025058
  C  C224  1  0.47955266  0.30273017  0.10296689  1 -0.29813
  C  C225  1  0.06092912  0.68845361  0.28757588  1 0.002549
  C  C226  1  0.10438716  0.57543584  0.63085478  1 -0.048623
  C  C227  1  0.12607400  0.62722092  0.57261593  1 0.203648
  C  C228  1  0.10624530  0.66124375  0.75323990  1 0.013064
  C  C229  1  0.01880035  0.64119127  0.23107505  1 -0.00667
  C  C230  1  0.10356695  0.63902411  0.35289027  1 0.196338
  C  C231  1  0.06188179  0.59214803  0.29086334  1 -0.050322
  C  C232  1  0.08646831  0.61029109  0.81300779  1 -0.024344
  C  C233  1  0.14621502  0.63606117  0.43628940  1 -0.296909
  C  C234  1  0.72760005  0.02179361  0.62094129  1 0.004329
  C  C235  1  0.77106082  0.90877319  0.96420464  1 -0.049008
  C  C236  1  0.79274186  0.96055955  0.90595067  1 0.203173
  C  C237  1  0.77290482  0.99458708  0.08656910  1 0.014371
  C  C238  1  0.68546096  0.97452175  0.56442418  1 -0.009539
  C  C239  1  0.77023912  0.97235802  0.68623187  1 0.195809
  C  C240  1  0.72854281  0.92547314  0.62420509  1 -0.051914
  C  C241  1  0.75313412  0.94362979  0.14635380  1 -0.025901
  C  C242  1  0.81288002  0.96939033  0.76962865  1 -0.29576
  C  C243  1  0.35511221  0.96084948  0.04576489  1 0.003038
  C  C244  1  0.24210766  0.80438415  0.70246954  1 -0.049073
  C  C245  1  0.29388522  0.83448098  0.76070212  1 0.203803
  C  C246  1  0.32790440  0.88833715  0.58008191  1 0.013124
  C  C247  1  0.30786707  0.95571728  0.10224646  1 -0.00847
  C  C248  1  0.30568940  0.86878389  0.98044399  1 0.197211
  C  C249  1  0.25882069  0.86359664  0.04246222  1 -0.051232
  C  C250  1  0.27695820  0.85715908  0.52031868  1 -0.025164
  C  C251  1  0.30273176  0.82317910  0.89703067  1 -0.298102
  C  C252  1  0.02179058  0.29418945  0.37906688  1 0.004276
  C  C253  1  0.90877149  0.13771512  0.03580456  1 -0.049063
  C  C254  1  0.96055859  0.16781712  0.09405168  1 0.203169
  C  C255  1  0.99458548  0.22167936  0.91342677  1 0.014265
  C  C256  1  0.97452469  0.28905874  0.43557539  1 -0.009495
  C  C257  1  0.97235664  0.20211724  0.31377608  1 0.1958
  C  C258  1  0.92547654  0.19693103  0.37579933  1 -0.052071
  C  C259  1  0.94362922  0.19049738  0.85365014  1 -0.025864
  C  C260  1  0.96938945  0.15650915  0.23037418  1 -0.295538
  C  C261  1  0.68845782  0.62752909  0.71241998  1 0.002479
  C  C262  1  0.57543478  0.47104690  0.36913963  1 -0.048899
  C  C263  1  0.62721598  0.50114507  0.42738336  1 0.203782
  C  C264  1  0.66124059  0.55499185  0.24674707  1 0.013054
  C  C265  1  0.64118453  0.62239663  0.76892013  1 -0.006697
  C  C266  1  0.63902322  0.53545980  0.64710612  1 0.196308
  C  C267  1  0.59214611  0.53027151  0.70913056  1 -0.050192
  C  C268  1  0.61029219  0.52381878  0.18698555  1 -0.024431
  C  C269  1  0.63606311  0.48985108  0.56370939  1 -0.297022
  C  C270  1  0.03914990  0.39427101  0.04576108  1 0.003063
  C  C271  1  0.19561531  0.43771981  0.70246414  1 -0.049118
  C  C272  1  0.16551913  0.45940555  0.76069804  1 0.203834
  C  C273  1  0.11166659  0.43957313  0.58007975  1 0.013138
  C  C274  1  0.04428308  0.35213979  0.10225149  1 -0.008427
  C  C275  1  0.13121615  0.43690760  0.98043653  1 0.197438
  C  C276  1  0.13640340  0.39521743  0.04245589  1 -0.051229
  C  C277  1  0.14284356  0.41979920  0.52031772  1 -0.025072
  C  C278  1  0.17682206  0.47955241  0.89702644  1 -0.29834
  C  C279  1  0.70581313  0.72759586  0.37907047  1 0.004187
  C  C280  1  0.86228341  0.77105994  0.03580309  1 -0.049278
  C  C281  1  0.83218706  0.79274087  0.09404723  1 0.203459
  C  C282  1  0.77832719  0.77290963  0.91342702  1 0.014358
  C  C283  1  0.71094266  0.68546610  0.43556789  1 -0.009314
  C  C284  1  0.79788337  0.77023299  0.31377645  1 0.195716
  C  C285  1  0.80306848  0.72854165  0.37579236  1 -0.051883
  C  C286  1  0.80950211  0.75313672  0.85366190  1 -0.026002
  C  C287  1  0.84349126  0.81288053  0.23037417  1 -0.295711
  C  C288  1  0.37247511  0.06093759  0.71242364  1 0.002524
  C  C289  1  0.52895283  0.10438803  0.36915924  1 -0.048929
  C  C290  1  0.49885309  0.12607887  0.42739659  1 0.204001
  C  C291  1  0.44500324  0.10624955  0.24676765  1 0.013395
  C  C292  1  0.37760970  0.01879904  0.76892930  1 -0.00655
  C  C293  1  0.46454358  0.10357633  0.64711839  1 0.196206
  C  C294  1  0.46973496  0.06188544  0.70915204  1 -0.050334
  C  C295  1  0.47618122  0.08646834  0.18700278  1 -0.024718
  C  C296  1  0.51015385  0.14622064  0.56371849  1 -0.297222
  C  C297  1  0.60573214  0.64487977  0.04576839  1 0.00316
  C  C298  1  0.56228002  0.75789685  0.70246868  1 -0.049022
  C  C299  1  0.54059155  0.70611212  0.76070791  1 0.203668
  C  C300  1  0.56042038  0.67208779  0.58008600  1 0.013128
  C  C301  1  0.64786315  0.69214747  0.10226325  1 -0.008594
  C  C302  1  0.56309197  0.69430840  0.98044230  1 0.197394
  C  C303  1  0.60477859  0.74118633  0.04246315  1 -0.051268
  C  C304  1  0.58019830  0.72304006  0.52031876  1 -0.025058
  C  C305  1  0.52044734  0.69726983  0.89703311  1 -0.29813
  C  C306  1  0.27239995  0.97820639  0.37905871  1 0.004329
  C  C307  1  0.22893918  0.09122681  0.03579536  1 -0.049008
  C  C308  1  0.20725814  0.03944045  0.09404933  1 0.203173
  C  C309  1  0.22709518  0.00541292  0.91343090  1 0.014371
  C  C310  1  0.31453904  0.02547825  0.43557582  1 -0.009539
  C  C311  1  0.22976088  0.02764198  0.31376813  1 0.195809
  C  C312  1  0.27145719  0.07452686  0.37579491  1 -0.051914
  C  C313  1  0.24686588  0.05637021  0.85364620  1 -0.025901
  C  C314  1  0.18711998  0.03060967  0.23037135  1 -0.29576
  C  C315  1  0.93907088  0.31154639  0.71242412  1 0.002549
  C  C316  1  0.89561284  0.42456416  0.36914522  1 -0.048623
  C  C317  1  0.87392600  0.37277908  0.42738407  1 0.203648
  C  C318  1  0.89375470  0.33875625  0.24676010  1 0.013064
  C  C319  1  0.98119965  0.35880873  0.76892495  1 -0.00667
  C  C320  1  0.89643305  0.36097589  0.64710973  1 0.196338
  C  C321  1  0.93811821  0.40785197  0.70913666  1 -0.050322
  C  C322  1  0.91353169  0.38970891  0.18699221  1 -0.024344
  C  C323  1  0.85378498  0.36393883  0.56371060  1 -0.296909
  N  N324  1  0.64438576  0.08235835  0.01550610  1 -0.256702
  N  N325  1  0.74120228  0.09360043  0.89471456  1 -0.21364
  N  N326  1  0.66157303  0.12354024  0.30114005  1 -0.281017
  N  N327  1  0.76707175  0.18650166  0.42012154  1 -0.187189
  N  N328  1  0.31105843  0.41568758  0.34883579  1 -0.25713
  N  N329  1  0.40787223  0.42692654  0.22806633  1 -0.214248
  N  N330  1  0.32824074  0.45688364  0.63447063  1 -0.28121
  N  N331  1  0.43373810  0.51983524  0.75345462  1 -0.186785
  N  N332  1  0.97772284  0.74902885  0.68217321  1 -0.256835
  N  N333  1  0.07453506  0.76026231  0.56139236  1 -0.213029
  N  N334  1  0.99490333  0.79020955  0.96779771  1 -0.281533
  N  N335  1  0.10039458  0.85315829  0.08678395  1 -0.186313
  N  N336  1  0.91763833  0.56202656  0.01549788  1 -0.256699
  N  N337  1  0.90639878  0.64760368  0.89473033  1 -0.213562
  N  N338  1  0.87645515  0.53802649  0.30115015  1 -0.280899
  N  N339  1  0.81349985  0.58057188  0.42012211  1 -0.187143
  N  N340  1  0.58431043  0.89536220  0.34882407  1 -0.25708
  N  N341  1  0.57306757  0.98093402  0.22804551  1 -0.214217
  N  N342  1  0.54311478  0.87135072  0.63446367  1 -0.281352
  N  N343  1  0.48016662  0.91390474  0.75342676  1 -0.186712
  N  N344  1  0.25097102  0.22869718  0.68217648  1 -0.256834
  N  N345  1  0.23973839  0.31427914  0.56139718  1 -0.213147
  N  N346  1  0.20978959  0.20469062  0.96779442  1 -0.281681
  N  N347  1  0.14683983  0.24723473  0.08678559  1 -0.186406
  N  N348  1  0.43797056  0.35561038  0.01549189  1 -0.256769
  N  N349  1  0.35239996  0.25879276  0.89472208  1 -0.213446
  N  N350  1  0.46197833  0.33843011  0.30113945  1 -0.280912
  N  N351  1  0.41942682  0.23293031  0.42012179  1 -0.187172
  N  N352  1  0.10463102  0.68894330  0.34883759  1 -0.257171
  N  N353  1  0.01906106  0.59213009  0.22805012  1 -0.21432
  N  N354  1  0.12864422  0.67176240  0.63446585  1 -0.281204
  N  N355  1  0.08609461  0.56626268  0.75344715  1 -0.187011
  N  N356  1  0.77130115  0.02227577  0.68217998  1 -0.25692
  N  N357  1  0.68572548  0.92546422  0.56140079  1 -0.213173
  N  N358  1  0.79530178  0.00509678  0.96779386  1 -0.281544
  N  N359  1  0.75276838  0.89960685  0.08678954  1 -0.186478
  N  N360  1  0.35561424  0.91764165  0.98449390  1 -0.256702
  N  N361  1  0.25879772  0.90639957  0.10528544  1 -0.21364
  N  N362  1  0.33842697  0.87645976  0.69885995  1 -0.281017
  N  N363  1  0.23292825  0.81349834  0.57987846  1 -0.187189
  N  N364  1  0.02227716  0.25097115  0.31782679  1 -0.256835
  N  N365  1  0.92546494  0.23973769  0.43860764  1 -0.213029
  N  N366  1  0.00509667  0.20979045  0.03220229  1 -0.281533
  N  N367  1  0.89960542  0.14684171  0.91321605  1 -0.186313
  N  N368  1  0.68894157  0.58431242  0.65116421  1 -0.25713
  N  N369  1  0.59212777  0.57307346  0.77193367  1 -0.214248
  N  N370  1  0.67175926  0.54311636  0.36552937  1 -0.28121
  N  N371  1  0.56626190  0.48016476  0.24654538  1 -0.186785
  N  N372  1  0.08236167  0.43797344  0.98450212  1 -0.256699
  N  N373  1  0.09360122  0.35239632  0.10526967  1 -0.213562
  N  N374  1  0.12354485  0.46197351  0.69884985  1 -0.280899
  N  N375  1  0.18650015  0.41942812  0.57987789  1 -0.187143
  N  N376  1  0.74902898  0.77130282  0.31782352  1 -0.256834
  N  N377  1  0.76026161  0.68572086  0.43860282  1 -0.213147
  N  N378  1  0.79021041  0.79530938  0.03220558  1 -0.281681
  N  N379  1  0.85316017  0.75276527  0.91321441  1 -0.186406
  N  N380  1  0.41568957  0.10463780  0.65117593  1 -0.25708
  N  N381  1  0.42693243  0.01906598  0.77195449  1 -0.214217
  N  N382  1  0.45688522  0.12864928  0.36553633  1 -0.281352
  N  N383  1  0.51983338  0.08609526  0.24657324  1 -0.186712
  N  N384  1  0.56202944  0.64438962  0.98450811  1 -0.256769
  N  N385  1  0.64760004  0.74120724  0.10527792  1 -0.213446
  N  N386  1  0.53802167  0.66156989  0.69886055  1 -0.280912
  N  N387  1  0.58057318  0.76706969  0.57987821  1 -0.187172
  N  N388  1  0.22869885  0.97772423  0.31782002  1 -0.25692
  N  N389  1  0.31427452  0.07453578  0.43859921  1 -0.213173
  N  N390  1  0.20469822  0.99490322  0.03220614  1 -0.281544
  N  N391  1  0.24723162  0.10039315  0.91321046  1 -0.186478
  N  N392  1  0.89536898  0.31105670  0.65116241  1 -0.257171
  N  N393  1  0.98093894  0.40786991  0.77194988  1 -0.21432
  N  N394  1  0.87135578  0.32823760  0.36553415  1 -0.281204
  N  N395  1  0.91390539  0.43373732  0.24655285  1 -0.187011
