# generated using pymatgen
data_CuH4C6N5
_symmetry_space_group_name_H-M   'P 1'
_cell_length_a   4.42287954
_cell_length_b   11.25534641
_cell_length_c   16.27098434
_cell_angle_alpha   90.00000209
_cell_angle_beta   89.99999957
_cell_angle_gamma   106.04868595
_symmetry_Int_Tables_number   1
_chemical_formula_structural   CuH4C6N5
_chemical_formula_sum   'Cu4 H16 C24 N20'
_cell_volume   778.41904611
_cell_formula_units_Z   4
loop_
 _symmetry_equiv_pos_site_id
 _symmetry_equiv_pos_as_xyz
  1  'x, y, z'
loop_
 _atom_site_type_symbol
 _atom_site_label
 _atom_site_symmetry_multiplicity
 _atom_site_fract_x
 _atom_site_fract_y
 _atom_site_fract_z
 _atom_site_occupancy
 _atom_site_charge
  Cu  Cu0  1  0.13296228  0.42372216  0.57476785  1 0.295355
  Cu  Cu1  1  0.86703768  0.07627784  0.07476784  1 0.295365
  Cu  Cu2  1  0.86703771  0.57627785  0.42523218  1 0.29536
  Cu  Cu3  1  0.13296229  0.92372213  0.92523214  1 0.295364
  H  H4  1  0.53275329  0.25735215  0.57624835  1 0.079702
  H  H5  1  0.78531304  0.15659183  0.68609147  1 0.126236
  H  H6  1  0.30964848  0.31638915  0.86793279  1 0.127956
  H  H7  1  0.07959559  0.41133763  0.75148717  1 0.086354
  H  H8  1  0.46724672  0.24264785  0.07624837  1 0.079699
  H  H9  1  0.21468696  0.34340816  0.18609147  1 0.126236
  H  H10  1  0.69035152  0.18361085  0.36793278  1 0.127902
  H  H11  1  0.92040437  0.08866239  0.25148716  1 0.086353
  H  H12  1  0.46724673  0.74264786  0.42375164  1 0.079694
  H  H13  1  0.21468698  0.84340816  0.31390853  1 0.126229
  H  H14  1  0.69035151  0.68361085  0.13206722  1 0.127895
  H  H15  1  0.92040437  0.58866240  0.24851284  1 0.08635
  H  H16  1  0.53275328  0.75735214  0.92375165  1 0.079694
  H  H17  1  0.78531303  0.65659183  0.81390853  1 0.12623
  H  H18  1  0.30964848  0.81638916  0.63206722  1 0.127894
  H  H19  1  0.07959559  0.91133762  0.74851283  1 0.086348
  C  C20  1  0.49631096  0.26972129  0.64156712  1 0.054318
  C  C21  1  0.64098996  0.21686372  0.70198986  1 -0.13951
  C  C22  1  0.56195789  0.22863105  0.78524949  1 0.054795
  C  C23  1  0.35756981  0.29839185  0.80423451  1 -0.161771
  C  C24  1  0.22533905  0.34949060  0.74003478  1 0.095441
  C  C25  1  0.71453066  0.17483858  0.84687275  1 0.197827
  C  C26  1  0.50368897  0.23027872  0.14156712  1 0.054315
  C  C27  1  0.35901007  0.28313627  0.20198987  1 -0.139509
  C  C28  1  0.43804210  0.27136895  0.28524949  1 0.054787
  C  C29  1  0.64243017  0.20160813  0.30423448  1 -0.161711
  C  C30  1  0.77466097  0.15050941  0.24003480  1 0.095444
  C  C31  1  0.28546939  0.32516140  0.34687276  1 0.197815
  C  C32  1  0.50368894  0.73027874  0.35843287  1 0.054308
  C  C33  1  0.35901005  0.78313627  0.29801015  1 -0.139509
  C  C34  1  0.43804207  0.77136894  0.21475050  1 0.054783
  C  C35  1  0.64243022  0.70160813  0.19576552  1 -0.161714
  C  C36  1  0.77466096  0.65050942  0.25996517  1 0.095437
  C  C37  1  0.28546936  0.82516139  0.15312723  1 0.19782
  C  C38  1  0.49631095  0.76972128  0.85843287  1 0.054312
  C  C39  1  0.64098996  0.71686373  0.79801015  1 -0.139512
  C  C40  1  0.56195790  0.72863106  0.71475050  1 0.054785
  C  C41  1  0.35756981  0.79839186  0.69576550  1 -0.161712
  C  C42  1  0.22533907  0.84949059  0.75996522  1 0.095443
  C  C43  1  0.71453063  0.67483860  0.65312725  1 0.197815
  N  N44  1  0.29302051  0.33503439  0.66000190  1 -0.216029
  N  N45  1  0.70857091  0.19566550  0.92945848  1 -0.245789
  N  N46  1  0.88381330  0.12992066  0.96169803  1 -0.057224
  N  N47  1  0.99575540  0.06943874  0.90077989  1 -0.069923
  N  N48  1  0.89276958  0.09814663  0.82884092  1 -0.227709
  N  N49  1  0.70697975  0.16496553  0.16000179  1 -0.216031
  N  N50  1  0.29142912  0.30433449  0.42945846  1 -0.245784
  N  N51  1  0.11618670  0.37007929  0.46169791  1 -0.057216
  N  N52  1  0.00424451  0.43056134  0.40077993  1 -0.069934
  N  N53  1  0.10723043  0.40185338  0.32884093  1 -0.227708
  N  N54  1  0.70697960  0.66496560  0.33999815  1 -0.216024
  N  N55  1  0.29142904  0.80433452  0.07054156  1 -0.245796
  N  N56  1  0.11618673  0.87007925  0.03830214  1 -0.057213
  N  N57  1  0.00424454  0.93056135  0.09922008  1 -0.06994
  N  N58  1  0.10723045  0.90185334  0.17115902  1 -0.227709
  N  N59  1  0.29302053  0.83503435  0.83999808  1 -0.216033
  N  N60  1  0.70857088  0.69566551  0.57054154  1 -0.245783
  N  N61  1  0.88381329  0.62992070  0.53830201  1 -0.057221
  N  N62  1  0.99575535  0.56943876  0.59922012  1 -0.069931
  N  N63  1  0.89276955  0.59814667  0.67115905  1 -0.227716
