# generated using pymatgen
data_MnHC4SO2
_symmetry_space_group_name_H-M   'P 1'
_cell_length_a   15.09377856
_cell_length_b   16.57070672
_cell_length_c   16.57076614
_cell_angle_alpha   68.78856076
_cell_angle_beta   72.32494351
_cell_angle_gamma   107.67463310
_symmetry_Int_Tables_number   1
_chemical_formula_structural   MnHC4SO2
_chemical_formula_sum   'Mn12 H12 C48 S12 O24'
_cell_volume   3258.24982771
_cell_formula_units_Z   12
loop_
 _symmetry_equiv_pos_site_id
 _symmetry_equiv_pos_as_xyz
  1  'x, y, z'
loop_
 _atom_site_type_symbol
 _atom_site_label
 _atom_site_symmetry_multiplicity
 _atom_site_fract_x
 _atom_site_fract_y
 _atom_site_fract_z
 _atom_site_occupancy
 _atom_site_charge
  Mn  Mn0  1  0.59401482  0.68799824  0.65595651  1 0.83012
  Mn  Mn1  1  0.24999973  0.65600931  0.65601101  1 0.831254
  Mn  Mn2  1  0.90598366  0.65595513  0.68799986  1 0.830447
  Mn  Mn3  1  0.40598494  0.31200194  0.34404136  1 0.830287
  Mn  Mn4  1  0.74999951  0.34399169  0.34399042  1 0.830662
  Mn  Mn5  1  0.09401780  0.34404557  0.31199846  1 0.82816
  Mn  Mn6  1  0.74999860  0.60380565  0.60380696  1 0.700107
  Mn  Mn7  1  0.35382719  0.60380586  0.79237514  1 0.699097
  Mn  Mn8  1  0.14617431  0.79237521  0.60380720  1 0.699282
  Mn  Mn9  1  0.25000129  0.39619548  0.39619405  1 0.700042
  Mn  Mn10  1  0.64617454  0.39619577  0.20762337  1 0.698933
  Mn  Mn11  1  0.85382435  0.20762418  0.39619479  1 0.698842
  H  H12  1  0.64251550  0.45369785  0.96828223  1 0.122228
  H  H13  1  0.61078496  0.96824651  0.57803018  1 0.123313
  H  H14  1  0.18881576  0.57803604  0.45373029  1 0.123274
  H  H15  1  0.88921693  0.57803353  0.96824423  1 0.123291
  H  H16  1  0.31118488  0.45373066  0.57803314  1 0.123425
  H  H17  1  0.85748281  0.96828174  0.45369775  1 0.122157
  H  H18  1  0.35748421  0.54630102  0.03171796  1 0.122305
  H  H19  1  0.38921585  0.03175532  0.42196983  1 0.123334
  H  H20  1  0.81118464  0.42196273  0.54626883  1 0.12329
  H  H21  1  0.11077981  0.42196644  0.03175861  1 0.123279
  H  H22  1  0.68881349  0.54626890  0.42196577  1 0.123378
  H  H23  1  0.14251725  0.03171871  0.54630298  1 0.122207
  C  C24  1  0.57613028  0.53944019  0.90397492  1 -0.072895
  C  C25  1  0.66158470  0.57485591  0.80626887  1 0.622858
  C  C26  1  0.57968139  0.47401745  0.98358216  1 -0.135297
  C  C27  1  0.49538073  0.56718204  0.91968259  1 0.126949
  C  C28  1  0.48010557  0.90398280  0.55656726  1 -0.072816
  C  C29  1  0.46785116  0.80625332  0.61884396  1 0.620479
  C  C30  1  0.56326222  0.98356412  0.54240524  1 -0.134919
  C  C31  1  0.41505963  0.91970811  0.51312776  1 0.126233
  C  C32  1  0.03665786  0.55655161  0.53946319  1 -0.073727
  C  C33  1  0.08667311  0.61883528  0.57492375  1 0.619357
  C  C34  1  0.10566955  0.54240580  0.47403862  1 -0.135384
  C  C35  1  0.92817398  0.51311066  0.56716566  1 0.127791
  C  C36  1  0.01989545  0.55656959  0.90398201  1 -0.072879
  C  C37  1  0.03215151  0.61884183  0.80625575  1 0.620439
  C  C38  1  0.93674006  0.54240798  0.98356237  1 -0.135002
  C  C39  1  0.08493887  0.51312689  0.91970961  1 0.126285
  C  C40  1  0.46334302  0.53946168  0.55654946  1 -0.073759
  C  C41  1  0.41332549  0.57491777  0.61883809  1 0.619274
  C  C42  1  0.39432916  0.47403824  0.54240486  1 -0.135376
  C  C43  1  0.57182923  0.56716669  0.51311287  1 0.127989
  C  C44  1  0.92386660  0.90397175  0.53944385  1 -0.072913
  C  C45  1  0.83840840  0.80626467  0.57486146  1 0.62282
  C  C46  1  0.92031889  0.98358328  0.47401781  1 -0.135327
  C  C47  1  0.00461652  0.91968333  0.56718226  1 0.126935
  C  C48  1  0.42386816  0.46055521  0.09602941  1 -0.072663
  C  C49  1  0.33841735  0.42514415  0.19372907  1 0.622588
  C  C50  1  0.42031958  0.52597938  0.01641883  1 -0.13544
  C  C51  1  0.50462058  0.43281682  0.08031538  1 0.126954
  C  C52  1  0.51989590  0.09601924  0.44343263  1 -0.072775
  C  C53  1  0.53215005  0.19374611  0.38115584  1 0.620446
  C  C54  1  0.43673906  0.01643722  0.45759490  1 -0.134919
  C  C55  1  0.58494296  0.08029387  0.48687279  1 0.126354
  C  C56  1  0.96334349  0.44344800  0.46053632  1 -0.073426
  C  C57  1  0.91332616  0.38116249  0.42507745  1 0.619093
  C  C58  1  0.89433120  0.45759359  0.52595994  1 -0.135488
  C  C59  1  0.07182901  0.48689008  0.43283139  1 0.127787
  C  C60  1  0.98010277  0.44343206  0.09602088  1 -0.072783
  C  C61  1  0.96784840  0.38115969  0.19374508  1 0.620324
  C  C62  1  0.06325735  0.45759347  0.01644009  1 -0.134897
  C  C63  1  0.91505802  0.48687573  0.08029316  1 0.126353
  C  C64  1  0.53665531  0.46053682  0.44344884  1 -0.07357
  C  C65  1  0.58667331  0.42508165  0.38116060  1 0.619174
  C  C66  1  0.60566798  0.52596021  0.45759429  1 -0.135403
  C  C67  1  0.42816919  0.43283239  0.48688824  1 0.128014
  C  C68  1  0.07613402  0.09603305  0.46055462  1 -0.072675
  C  C69  1  0.16158920  0.19373478  0.42513991  1 0.622764
  C  C70  1  0.07968034  0.01641858  0.52598076  1 -0.135491
  C  C71  1  -0.00461799  0.08031618  0.43281812  1 0.127021
  S  S72  1  0.49371728  0.66173004  0.82651387  1 -0.401308
  S  S73  1  0.32023134  0.82655010  0.51174530  1 -0.400455
  S  S74  1  0.83195544  0.51170261  0.66170789  1 -0.402155
  S  S75  1  0.17976763  0.51174303  0.82655271  1 -0.400551
  S  S76  1  0.66804335  0.66170446  0.51170748  1 -0.402035
  S  S77  1  0.00628012  0.82651128  0.66173260  1 -0.40144
  S  S78  1  0.50628148  0.33826789  0.17348726  1 -0.401444
  S  S79  1  0.67976860  0.17345076  0.48825563  1 -0.400738
  S  S80  1  0.16804453  0.48829844  0.33829134  1 -0.402348
  S  S81  1  0.82023361  0.48825974  0.17344832  1 -0.400726
  S  S82  1  0.33195738  0.33829405  0.48829304  1 -0.402206
  S  S83  1  -0.00628007  0.17348906  0.33826697  1 -0.40176
  O  O84  1  0.63877195  0.58027574  0.73541965  1 -0.536206
  O  O85  1  0.75221090  0.59367649  0.79822645  1 -0.491615
  O  O86  1  0.37418995  0.73542289  0.68432408  1 -0.534874
  O  O87  1  0.55042917  0.79818522  0.60799181  1 -0.49043
  O  O88  1  0.05848158  0.68430581  0.58026145  1 -0.534292
  O  O89  1  0.15840748  0.60800293  0.59383501  1 -0.490126
  O  O90  1  0.12581358  0.68432582  0.73542712  1 -0.534852
  O  O91  1  0.94957359  0.60798976  0.79818300  1 -0.490516
  O  O92  1  0.44151756  0.58025880  0.68431093  1 -0.534253
  O  O93  1  0.34158507  0.59382789  0.60801111  1 -0.490038
  O  O94  1  0.86122028  0.73542002  0.58028248  1 -0.536146
  O  O95  1  0.74779031  0.79822558  0.59368121  1 -0.491598
  O  O96  1  0.36122918  0.41972503  0.26458099  1 -0.536268
  O  O97  1  0.24779036  0.40632257  0.20177296  1 -0.491431
  O  O98  1  0.62581547  0.26457922  0.31567199  1 -0.534885
  O  O99  1  0.44957317  0.20181803  0.39200732  1 -0.490565
  O  O100  1  0.94152100  0.31569258  0.41973889  1 -0.534047
  O  O101  1  0.84159057  0.39199586  0.40616628  1 -0.490287
  O  O102  1  0.87418097  0.31567197  0.26457658  1 -0.534955
  O  O103  1  0.05042726  0.39201251  0.20181717  1 -0.490436
  O  O104  1  0.55847984  0.41974248  0.31568757  1 -0.534287
  O  O105  1  0.65841170  0.40616892  0.39199199  1 -0.490064
  O  O106  1  0.13877760  0.26458173  0.41971785  1 -0.535935
  O  O107  1  0.25220914  0.20177546  0.40631983  1 -0.491901
