# generated using pymatgen
data_Ag2H16C11SN5O3
_symmetry_space_group_name_H-M   'P 1'
_cell_length_a   11.43171900
_cell_length_b   12.29748401
_cell_length_c   29.21054147
_cell_angle_alpha   89.99030039
_cell_angle_beta   90.00346201
_cell_angle_gamma   90.00183570
_symmetry_Int_Tables_number   1
_chemical_formula_structural   Ag2H16C11SN5O3
_chemical_formula_sum   'Ag16 H128 C88 S8 N40 O24'
_cell_volume   4106.45820800
_cell_formula_units_Z   8
loop_
 _symmetry_equiv_pos_site_id
 _symmetry_equiv_pos_as_xyz
  1  'x, y, z'
loop_
 _atom_site_type_symbol
 _atom_site_label
 _atom_site_symmetry_multiplicity
 _atom_site_fract_x
 _atom_site_fract_y
 _atom_site_fract_z
 _atom_site_occupancy
 _atom_site_charge
  Ag  Ag0  1  0.73292373  0.59561200  0.72780968  1 0.011609
  Ag  Ag1  1  0.86498086  0.41587793  0.91199027  1 0.391878
  Ag  Ag2  1  0.25727236  0.93572518  0.20393849  1 0.006498
  Ag  Ag3  1  0.16139761  0.06399247  0.42623096  1 0.391499
  Ag  Ag4  1  0.23463092  0.39520684  0.77322732  1 0.010332
  Ag  Ag5  1  0.35332982  0.58162842  0.59047291  1 0.391637
  Ag  Ag6  1  0.75905983  0.07798167  0.29048998  1 0.008923
  Ag  Ag7  1  0.66600547  0.92929338  0.07229289  1 0.391609
  Ag  Ag8  1  0.21107993  0.07716733  0.13797833  1 0.006574
  Ag  Ag9  1  0.15744912  0.51877606  0.09878966  1 0.391624
  Ag  Ag10  1  0.53722975  0.31276808  0.66771182  1 0.002949
  Ag  Ag11  1  0.82119675  0.97521422  0.58584925  1 0.391477
  Ag  Ag12  1  0.73460253  0.93538759  0.35772806  1 0.00628
  Ag  Ag13  1  0.62080444  0.46367613  0.40434685  1 0.391515
  Ag  Ag14  1  0.02259843  0.68951990  0.83678376  1 0.00381
  Ag  Ag15  1  0.33002730  0.01266074  0.91268752  1 0.391722
  H  H16  1  0.71516003  0.09176253  0.99085829  1 0.102482
  H  H17  1  0.40252560  0.27840185  0.96500570  1 0.128503
  H  H18  1  0.30622987  0.17360636  0.02939235  1 0.119958
  H  H19  1  0.42028019  0.03509523  0.07135284  1 0.074171
  H  H20  1  0.52557578  0.52603957  0.66391616  1 0.078672
  H  H21  1  0.54447392  0.67079193  0.65499355  1 0.108963
  H  H22  1  0.50171825  0.73592945  0.77669384  1 0.035826
  H  H23  1  0.52641560  0.79051004  0.72029623  1 0.077122
  H  H24  1  0.47952909  0.53908008  0.78592915  1 0.071396
  H  H25  1  0.49105850  0.45373772  0.73539096  1 0.066832
  H  H26  1  0.37737843  0.79162518  0.66431556  1 0.118615
  H  H27  1  0.23702392  0.73662910  0.67737933  1 0.091431
  H  H28  1  0.31190694  0.65884444  0.79454440  1 0.04827
  H  H29  1  0.19964506  0.66007127  0.75267947  1 0.064158
  H  H30  1  0.34218260  0.45387991  0.67975799  1 0.065431
  H  H31  1  0.21515775  0.54081154  0.68581465  1 0.080474
  H  H32  1  0.29089518  0.44022586  0.50587540  1 0.102346
  H  H33  1  0.58276027  0.23130069  0.47372194  1 0.128402
  H  H34  1  0.68731588  0.31095789  0.54218463  1 0.119831
  H  H35  1  0.58939371  0.45573564  0.58730350  1 0.074112
  H  H36  1  0.48259202  -0.00591586  0.14831947  1 0.078451
  H  H37  1  0.46023238  0.85286134  0.13549907  1 0.108241
  H  H38  1  0.49410295  0.76370339  0.25360274  1 0.035963
  H  H39  1  0.46832466  0.72161514  0.19518155  1 0.077117
  H  H40  1  0.52685373  0.95351135  0.27046470  1 0.071389
  H  H41  1  0.51933512  0.05052329  0.22464808  1 0.066608
  H  H42  1  0.62059875  0.72548673  0.14055701  1 0.118891
  H  H43  1  0.76302633  0.77157498  0.15661703  1 0.091439
  H  H44  1  0.68630869  0.82923868  0.27558015  1 0.048724
  H  H45  1  0.79946418  0.83051893  0.23367768  1 0.064255
  H  H46  1  0.67543318  0.05662577  0.16897935  1 0.065318
  H  H47  1  0.79484122  0.96231353  0.17300776  1 0.080507
  H  H48  1  0.20709409  0.90640877  0.51029891  1 0.10254
  H  H49  1  0.89429362  0.71704710  0.53270574  1 0.128485
  H  H50  1  0.80445798  0.81579218  0.46536258  1 0.119892
  H  H51  1  0.92141905  0.95276753  0.42364141  1 0.074322
  H  H52  1  0.02899466  0.47391999  0.83732391  1 0.078408
  H  H53  1  0.05138633  0.32960088  0.84669000  1 0.108567
  H  H54  1  0.00637854  0.26059147  0.72551684  1 0.035816
  H  H55  1  0.03526360  0.20790827  0.78190221  1 0.077026
  H  H56  1  0.97982091  0.45728430  0.71563571  1 0.071338
  H  H57  1  0.99028332  0.54367935  0.76588091  1 0.066493
  H  H58  1  0.88688858  0.20547594  0.83902644  1 0.118838
  H  H59  1  0.74503768  0.25736820  0.82607446  1 0.091562
  H  H60  1  0.81512282  0.33297273  0.70830487  1 0.04856
  H  H61  1  0.70409749  0.33065911  0.75060172  1 0.064023
  H  H62  1  0.84269725  0.54193597  0.82197027  1 0.065319
  H  H63  1  0.71815592  0.45149676  0.81681834  1 0.080604
  H  H64  1  0.80136580  0.55500676  0.99758209  1 0.102517
  H  H65  1  0.09742470  0.75655239  0.03260927  1 0.128469
  H  H66  1  0.20581766  0.66952299  0.96683387  1 0.119732
  H  H67  1  0.10488532  0.52966310  0.91979337  1 0.074029
  H  H68  1  0.97663873  0.02078017  0.34662312  1 0.078541
  H  H69  1  0.96430387  0.16151702  0.36178580  1 0.108465
  H  H70  1  0.01578908  0.25984876  0.24592840  1 0.035931
  H  H71  1  0.98820344  0.29784760  0.30473759  1 0.07705
  H  H72  1  0.03527430  0.07081523  0.22585173  1 0.071385
  H  H73  1  0.01563805  0.96970100  0.26948367  1 0.06694
  H  H74  1  0.13390616  0.27784465  0.36104848  1 0.1186
  H  H75  1  0.27394058  0.22445591  0.34618724  1 0.091558
  H  H76  1  0.20439076  0.18376855  0.22524623  1 0.048503
  H  H77  1  0.31299597  0.16978535  0.26878519  1 0.064339
  H  H78  1  0.16531231  0.94709083  0.32706814  1 0.065276
  H  H79  1  0.29267984  0.03267055  0.32631065  1 0.080252
  H  H80  1  0.27980989  0.86211421  0.99919433  1 0.102434
  H  H81  1  0.59581914  0.68517595  0.03099646  1 0.128419
  H  H82  1  0.69153093  0.78111950  0.96478712  1 0.119833
  H  H83  1  0.57418041  0.91133190  0.91809136  1 0.074387
  H  H84  1  0.47901872  0.50229790  0.31067174  1 0.078173
  H  H85  1  0.45182224  0.36642187  0.33005087  1 0.108403
  H  H86  1  0.55509636  0.24031186  0.22457185  1 0.03591
  H  H87  1  0.49683384  0.21631960  0.28075013  1 0.07701
  H  H88  1  0.59355062  0.42364408  0.19958709  1 0.071449
  H  H89  1  0.56134697  0.53532995  0.23660056  1 0.066881
  H  H90  1  0.61502627  0.24622218  0.34779418  1 0.118484
  H  H91  1  0.76083351  0.29461825  0.34147888  1 0.091646
  H  H92  1  0.75316995  0.30546220  0.21663703  1 0.048745
  H  H93  1  0.83995054  0.32849124  0.26668358  1 0.064155
  H  H94  1  0.67849566  0.56686007  0.30325980  1 0.065204
  H  H95  1  0.79767452  0.47751079  0.31648332  1 0.080358
  H  H96  1  0.69383293  0.60274875  0.49189837  1 0.102326
  H  H97  1  0.39408357  0.79340118  0.53256950  1 0.128555
  H  H98  1  0.28304806  0.70664011  0.46730353  1 0.120048
  H  H99  1  0.38568127  0.57216441  0.41763659  1 0.074168
  H  H100  1  0.53009187  0.01148776  0.83975627  1 0.078377
  H  H101  1  0.51564592  0.14641079  0.86316827  1 0.108415
  H  H102  1  0.48370124  0.27682374  0.75258965  1 0.035895
  H  H103  1  0.48667122  0.29675156  0.81436550  1 0.077065
  H  H104  1  0.50277975  0.10086326  0.72166624  1 0.07134
  H  H105  1  0.52509875  0.98579168  0.75882663  1 0.06675
  H  H106  1  0.32633093  0.23735297  0.86026879  1 0.118348
  H  H107  1  0.20413549  0.16972991  0.83521242  1 0.091618
  H  H108  1  0.32208987  0.18715427  0.71785136  1 0.049129
  H  H109  1  0.20034249  0.14067877  0.75182294  1 0.064019
  H  H110  1  0.36348857  0.92185078  0.80577230  1 0.064758
  H  H111  1  0.22551187  0.98925720  0.80310152  1 0.080135
  H  H112  1  0.76363061  0.12549902  0.50008141  1 0.102322
  H  H113  1  0.07422059  0.30890573  0.46620296  1 0.128444
  H  H114  1  0.17672692  0.21096228  0.53007356  1 0.119928
  H  H115  1  0.06512832  0.07672652  0.57707995  1 0.074414
  H  H116  1  0.98214167  0.50488246  0.18358065  1 0.077992
  H  H117  1  0.96768319  0.63510829  0.15602724  1 0.10863
  H  H118  1  0.02698166  0.78910509  0.25973872  1 0.036115
  H  H119  1  0.99611799  0.79731028  0.19944852  1 0.077169
  H  H120  1  0.04720260  0.61291828  0.29586063  1 0.071389
  H  H121  1  0.02763901  0.49267586  0.26227450  1 0.066497
  H  H122  1  0.13993180  0.74842865  0.14441502  1 0.118437
  H  H123  1  0.27941180  0.70040508  0.16216888  1 0.091628
  H  H124  1  0.21523385  0.72416253  0.28469554  1 0.04903
  H  H125  1  0.32344877  0.68652009  0.24341316  1 0.064021
  H  H126  1  0.17327649  0.44101503  0.20729662  1 0.06518
  H  H127  1  0.29927219  0.52468917  0.19861013  1 0.080347
  H  H128  1  0.21727851  0.38123643  0.00873662  1 0.102397
  H  H129  1  0.90540341  0.20542148  0.97021688  1 0.128463
  H  H130  1  0.80531535  0.29071537  0.03840028  1 0.11995
  H  H131  1  0.91925102  0.41571759  0.08870117  1 0.074142
  H  H132  1  0.01303662  0.99463539  0.66253670  1 0.078346
  H  H133  1  0.01335118  0.85810877  0.64014237  1 0.108865
  H  H134  1  0.97713708  0.73004367  0.75117859  1 0.035775
  H  H135  1  0.98980848  0.70816087  0.68977191  1 0.076947
  H  H136  1  0.97694000  0.90968460  0.78075459  1 0.071325
  H  H137  1  0.99430909  0.02396840  0.74282557  1 0.066841
  H  H138  1  0.83169159  0.75330499  0.64008445  1 0.118711
  H  H139  1  0.70116915  0.81340103  0.66199664  1 0.091718
  H  H140  1  0.80455315  0.81002687  0.78162461  1 0.049322
  H  H141  1  0.68401784  0.84563403  0.74489410  1 0.064419
  H  H142  1  0.83515615  0.07319470  0.69193885  1 0.064745
  H  H143  1  0.70319411  0.99563478  0.69229267  1 0.080166
  C  C144  1  0.62539044  0.11377626  -0.00064277  1 0.053948
  C  C145  1  0.56754119  0.19509942  0.97484972  1 -0.123376
  C  C146  1  0.45082434  0.21838402  0.98501192  1 -0.095367
  C  C147  1  0.39750245  0.16033047  0.02036494  1 -0.119627
  C  C148  1  0.46105020  0.08153528  0.04377151  1 0.045986
  C  C149  1  0.49826196  0.60835807  0.67477966  1 -0.014092
  C  C150  1  0.48147571  0.72697818  0.74004678  1 0.004878
  C  C151  1  0.46130412  0.53288645  0.74908232  1 0.009868
  C  C152  1  0.33123204  0.72818533  0.68355905  1 -0.003773
  C  C153  1  0.29453757  0.65205484  0.75765666  1 0.001962
  C  C154  1  0.30975793  0.53351026  0.69178115  1 -0.012003
  C  C155  1  0.37790721  0.40876038  0.51346275  1 0.053718
  C  C156  1  0.42781131  0.32833423  0.48622091  1 -0.12344
  C  C157  1  0.54070567  0.29086979  0.49596439  1 -0.095123
  C  C158  1  0.59883573  0.33584061  0.53322403  1 -0.119438
  C  C159  1  0.54428259  0.41689011  0.55884131  1 0.045688
  C  C160  1  0.50829766  0.91045330  0.15707963  1 -0.013021
  C  C161  1  0.51575692  0.77863417  0.21742599  1 0.00348
  C  C162  1  0.54568467  0.96744078  0.23398280  1 0.009621
  C  C163  1  0.66889877  0.78222260  0.16243653  1 -0.004568
  C  C164  1  0.70506894  0.84125887  0.23892596  1 0.001656
  C  C165  1  0.70043245  0.97321125  0.17855180  1 -0.011869
  C  C166  1  0.11873914  0.88261233  0.50046322  1 0.053651
  C  C167  1  0.05907578  0.80232295  0.52492434  1 -0.122909
  C  C168  1  0.94406488  0.77646345  0.51291312  1 -0.09552
  C  C169  1  0.89432609  0.83118073  0.47588906  1 -0.119572
  C  C170  1  0.95950380  0.90914028  0.45265879  1 0.045798
  C  C171  1  0.00329429  0.39080696  0.82693781  1 -0.012979
  C  C172  1  0.98746379  0.26985440  0.76226380  1 0.004514
  C  C173  1  0.96241477  0.46361497  0.75254750  1 0.010019
  C  C174  1  0.83890095  0.26733247  0.81958514  1 -0.003959
  C  C175  1  0.79861253  0.34041644  0.74523136  1 0.001721
  C  C176  1  0.81231317  0.46113885  0.81045136  1 -0.011431
  C  C177  1  0.88987976  0.58410644  0.99106899  1 0.053218
  C  C178  1  0.93986876  0.66479324  0.01828196  1 -0.122627
  C  C179  1  0.05521020  0.69726639  0.01026283  1 -0.095731
  C  C180  1  0.11531291  0.64864365  0.97424540  1 -0.119171
  C  C181  1  0.05954097  0.56995425  0.94785201  1 0.045792
  C  C182  1  0.01000011  0.10312954  0.33973958  1 -0.013229
  C  C183  1  0.03280837  0.23985388  0.28204729  1 0.004085
  C  C184  1  0.04939777  0.05165591  0.26226701  1 0.009992
  C  C185  1  0.17990881  0.22006841  0.33881246  1 -0.004281
  C  C186  1  0.21862822  0.16651744  0.26186365  1 0.002334
  C  C187  1  0.19817115  0.02923671  0.31938272  1 -0.011413
  C  C188  1  0.36981373  0.83975105  0.99128737  1 0.05365
  C  C189  1  0.42890418  0.76383289  0.01839573  1 -0.122804
  C  C190  1  0.54620385  0.74075302  0.00923698  1 -0.095511
  C  C191  1  0.59934847  0.79408437  0.97244070  1 -0.119013
  C  C192  1  0.53441172  0.86738906  0.94652968  1 0.04492
  C  C193  1  0.50984159  0.41764409  0.30931062  1 -0.012609
  C  C194  1  0.55457382  0.26877962  0.26029401  1 0.003626
  C  C195  1  0.59205135  0.45063547  0.23548266  1 0.009476
  C  C196  1  0.67225008  0.29847061  0.32719395  1 -0.004535
  C  C197  1  0.75154416  0.33337257  0.25243290  1 0.00239
  C  C198  1  0.70930990  0.48225847  0.30174832  1 -0.011863
  C  C199  1  0.60431590  0.63055250  0.48652817  1 0.054248
  C  C200  1  0.55300967  0.70707958  0.51567075  1 -0.123452
  C  C201  1  0.43634340  0.73685949  0.50899567  1 -0.095576
  C  C202  1  0.37525310  0.68902263  0.47289352  1 -0.119828
  C  C203  1  0.43193388  0.61367845  0.44519349  1 0.04612
  C  C204  1  0.48760468  0.09118506  0.83581077  1 -0.012941
  C  C205  1  0.46023493  0.24233975  0.78637597  1 0.003359
  C  C206  1  0.48022758  0.06442098  0.75498408  1 0.009605
  C  C207  1  0.29925006  0.18168873  0.83291138  1 -0.004115
  C  C208  1  0.29578298  0.15163738  0.75090345  1 0.002942
  C  C209  1  0.32075630  0.00117383  0.80129836  1 -0.010587
  C  C210  1  0.85392016  0.14883969  0.50698441  1 0.053803
  C  C211  1  0.90939378  0.22708767  0.47989340  1 -0.12329
  C  C212  1  0.02712657  0.25107153  0.48774527  1 -0.095257
  C  C213  1  0.08427584  0.19652021  0.52326201  1 -0.119447
  C  C214  1  0.02259808  0.12127344  0.54943651  1 0.045129
  C  C215  1  0.01415140  0.58919284  0.18264219  1 -0.012556
  C  C216  1  0.04159962  0.75073519  0.22619533  1 0.002853
  C  C217  1  0.06089014  0.57659725  0.26184949  1 0.009882
  C  C218  1  0.18594865  0.70129458  0.17066526  1 -0.004438
  C  C219  1  0.22953859  0.68649671  0.25097300  1 0.001912
  C  C220  1  0.20540566  0.52525902  0.20685538  1 -0.011617
  C  C221  1  0.12735646  0.35612788  0.01524039  1 0.053835
  C  C222  1  0.06977777  0.28406350  0.98589669  1 -0.123264
  C  C223  1  0.95265663  0.25820960  0.99392850  1 -0.095403
  C  C224  1  0.89768276  0.30505111  0.03171306  1 -0.119677
  C  C225  1  0.96054409  0.37554562  0.05963603  1 0.045928
  C  C226  1  0.97712747  0.91214195  0.66637767  1 -0.013167
  C  C227  1  0.95534696  0.76162898  0.71671229  1 0.004004
  C  C228  1  0.95613272  0.94233057  0.74660328  1 0.009647
  C  C229  1  0.79649877  0.80809121  0.66628913  1 -0.004725
  C  C230  1  0.77972530  0.84184543  0.74774296  1 0.002064
  C  C231  1  0.79872809  0.99116272  0.69631595  1 -0.010962
  S  S232  1  0.64491940  0.26789311  0.93107310  1 1.150188
  S  S233  1  0.35082018  0.27995021  0.43713304  1 1.151006
  S  S234  1  0.13170115  0.73384721  0.57119830  1 1.149761
  S  S235  1  0.85588700  0.72523775  0.06309880  1 1.150092
  S  S236  1  0.35366228  0.70339637  0.06620402  1 1.150924
  S  S237  1  0.63354165  0.76117804  0.56329752  1 1.150168
  S  S238  1  0.82932353  0.29090276  0.43408638  1 1.150766
  S  S239  1  0.14259759  0.23206079  0.93599435  1 1.150028
  N  N240  1  0.57337652  0.05763904  0.03338845  1 -0.249834
  N  N241  1  0.52603296  0.61924240  0.72428919  1 -0.14123
  N  N242  1  0.37091378  0.61996554  0.66614800  1 -0.146786
  N  N243  1  0.33278408  0.54175981  0.74188392  1 -0.137265
  N  N244  1  0.35596511  0.73760916  0.73273479  1 -0.137822
  N  N245  1  0.43575101  0.45336967  0.54901434  1 -0.249367
  N  N246  1  0.47799112  0.89071759  0.20556962  1 -0.139463
  N  N247  1  0.63603747  0.89591207  0.14858632  1 -0.147618
  N  N248  1  0.67323689  0.95520733  0.22711508  1 -0.136695
  N  N249  1  0.64133897  0.76270560  0.21071279  1 -0.136965
  N  N250  1  0.07010159  0.93546079  0.46473554  1 -0.249603
  N  N251  1  0.02986570  0.37897596  0.77732847  1 -0.141093
  N  N252  1  0.87657601  0.37690597  0.83622871  1 -0.148196
  N  N253  1  0.83441311  0.45197840  0.76029652  1 -0.137
  N  N254  1  0.86265494  0.25684821  0.77034813  1 -0.137438
  N  N255  1  0.94899189  0.53695238  0.95650025  1 -0.249736
  N  N256  1  0.98563078  0.12965085  0.29133293  1 -0.140872
  N  N257  1  0.13760282  0.10778061  0.35010523  1 -0.147334
  N  N258  1  0.17700332  0.05402484  0.27090845  1 -0.137245
  N  N259  1  0.15872841  0.24636303  0.29067611  1 -0.137557
  N  N260  1  0.42111395  0.89063618  0.95563231  1 -0.249455
  N  N261  1  0.51109016  0.38092798  0.26166181  1 -0.139665
  N  N262  1  0.62974246  0.41312295  0.33034663  1 -0.147209
  N  N263  1  0.71168062  0.44623196  0.25402152  1 -0.136813
  N  N264  1  0.67481354  0.25943327  0.27921332  1 -0.137773
  N  N265  1  0.54484640  0.58469566  0.45164834  1 -0.249761
  N  N266  1  0.51931160  0.13776833  0.79166525  1 -0.138855
  N  N267  1  0.35741276  0.07447449  0.83972500  1 -0.14764
  N  N268  1  0.35263208  0.04646830  0.75675766  1 -0.137545
  N  N269  1  0.32944461  0.23027341  0.78791634  1 -0.138185
  N  N270  1  0.90891821  0.09715711  0.54159672  1 -0.249052
  N  N271  1  0.99576644  0.63939223  0.22739154  1 -0.139537
  N  N272  1  0.14203716  0.58664375  0.17001505  1 -0.147658
  N  N273  1  0.18729583  0.57420813  0.25194919  1 -0.136811
  N  N274  1  0.16898940  0.75316058  0.21584679  1 -0.137059
  N  N275  1  0.07399696  0.40078372  0.05185969  1 -0.249864
  N  N276  1  0.00630034  0.87009817  0.71160516  1 -0.139257
  N  N277  1  0.84670958  0.91891955  0.65949785  1 -0.147192
  N  N278  1  0.82791077  0.95064293  0.74194964  1 -0.137219
  N  N279  1  0.82445685  0.76413393  0.71232425  1 -0.138443
  O  O280  1  0.73438953  0.19186198  0.91470789  1 -0.611822
  O  O281  1  0.55758591  0.29880195  0.89675555  1 -0.611915
  O  O282  1  0.69509026  0.36240118  0.95584075  1 -0.593463
  O  O283  1  0.24747222  0.34926264  0.43275870  1 -0.612464
  O  O284  1  0.43447678  0.28905092  0.39916831  1 -0.611746
  O  O285  1  0.32272860  0.16496493  0.44852872  1 -0.593509
  O  O286  1  0.21946305  0.81126512  0.58775179  1 -0.611928
  O  O287  1  0.04060940  0.70618795  0.60445296  1 -0.611766
  O  O288  1  0.18392508  0.63689733  0.54883475  1 -0.593199
  O  O289  1  0.76149646  0.64847430  0.07299266  1 -0.611849
  O  O290  1  0.93657563  0.74472389  0.10117220  1 -0.61216
  O  O291  1  0.81423179  0.82822173  0.04156208  1 -0.593026
  O  O292  1  0.26005287  0.78070023  0.07630056  1 -0.612063
  O  O293  1  0.44153575  0.69246414  0.10247298  1 -0.612249
  O  O294  1  0.31093659  0.59694466  0.04927970  1 -0.593485
  O  O295  1  0.71961747  0.67752942  0.57486181  1 -0.612065
  O  O296  1  0.54598728  0.78190169  0.59897420  1 -0.611617
  O  O297  1  0.68647201  0.86280956  0.54524131  1 -0.5934
  O  O298  1  0.73661698  0.21309300  0.42333702  1 -0.61232
  O  O299  1  0.91499567  0.30768610  0.39730319  1 -0.611862
  O  O300  1  0.78535343  0.39428905  0.45355080  1 -0.593447
  O  O301  1  0.22943077  0.31496414  0.92408487  1 -0.611909
  O  O302  1  0.05032888  0.21656464  0.90175556  1 -0.611972
  O  O303  1  0.19483308  0.12787667  0.95143688  1 -0.593064
