# generated using pymatgen
data_Zr3H12C32(OF)12
_symmetry_space_group_name_H-M   'P 1'
_cell_length_a   23.53274993
_cell_length_b   23.53282880
_cell_length_c   17.30053593
_cell_angle_alpha   90.00000000
_cell_angle_beta   90.00000000
_cell_angle_gamma   90.00000000
_symmetry_Int_Tables_number   1
_chemical_formula_structural   Zr3H12C32(OF)12
_chemical_formula_sum   'Zr12 H48 C128 O48 F48'
_cell_volume   9580.90142626
_cell_formula_units_Z   4
loop_
 _symmetry_equiv_pos_site_id
 _symmetry_equiv_pos_as_xyz
  1  'x, y, z'
loop_
 _atom_site_type_symbol
 _atom_site_label
 _atom_site_symmetry_multiplicity
 _atom_site_fract_x
 _atom_site_fract_y
 _atom_site_fract_z
 _atom_site_occupancy
 _atom_site_charge
  Zr  Zr0  1  0.39820759  0.00000000  0.00000000  1 2.323233
  Zr  Zr1  1  0.60179241  0.00000000  0.00000000  1 2.323233
  Zr  Zr2  1  0.00000000  0.39820817  0.50000000  1 2.32326
  Zr  Zr3  1  0.00000000  0.60179183  0.50000000  1 2.32326
  Zr  Zr4  1  0.50000000  0.06990199  0.09483899  1 2.275154
  Zr  Zr5  1  0.50000000  0.93009801  0.09483899  1 2.275153
  Zr  Zr6  1  0.93009804  0.50000000  0.59483865  1 2.275188
  Zr  Zr7  1  0.06990196  0.50000000  0.59483865  1 2.275187
  Zr  Zr8  1  0.50000000  0.06990199  0.90516101  1 2.275156
  Zr  Zr9  1  0.50000000  0.93009801  0.90516101  1 2.275154
  Zr  Zr10  1  0.06990196  0.50000000  0.40516135  1 2.275189
  Zr  Zr11  1  0.93009804  0.50000000  0.40516135  1 2.275188
  H  H12  1  0.26170313  0.10348070  0.08852110  1 0.124839
  H  H13  1  0.38123659  0.16462447  0.25647257  1 0.112742
  H  H14  1  0.30491110  0.22469105  0.31566596  1 0.113186
  H  H15  1  0.73829687  0.89651930  0.08852110  1 0.124839
  H  H16  1  0.61876341  0.83537553  0.25647257  1 0.112742
  H  H17  1  0.69508890  0.77530895  0.31566596  1 0.113186
  H  H18  1  0.89651760  0.26170439  0.58851997  1 0.124857
  H  H19  1  0.83537660  0.38123667  0.75647505  1 0.112737
  H  H20  1  0.77531088  0.30491096  0.81566943  1 0.113197
  H  H21  1  0.10348240  0.73829561  0.58851997  1 0.124857
  H  H22  1  0.16462340  0.61876333  0.75647505  1 0.112737
  H  H23  1  0.22468912  0.69508904  0.81566943  1 0.113197
  H  H24  1  0.73829687  0.10348070  0.91147890  1 0.124839
  H  H25  1  0.61876341  0.16462447  0.74352743  1 0.112742
  H  H26  1  0.69508890  0.22469105  0.68433404  1 0.113186
  H  H27  1  0.26170313  0.89651930  0.91147890  1 0.124839
  H  H28  1  0.38123659  0.83537553  0.74352743  1 0.112742
  H  H29  1  0.30491110  0.77530895  0.68433404  1 0.113186
  H  H30  1  0.10348240  0.26170439  0.41148003  1 0.124857
  H  H31  1  0.16462340  0.38123667  0.24352495  1 0.112737
  H  H32  1  0.22468912  0.30491096  0.18433057  1 0.113197
  H  H33  1  0.89651760  0.73829561  0.41148003  1 0.124857
  H  H34  1  0.83537660  0.61876333  0.24352495  1 0.112737
  H  H35  1  0.77531088  0.69508904  0.18433057  1 0.113197
  H  H36  1  0.73829687  0.89651930  0.91147890  1 0.124838
  H  H37  1  0.61876341  0.83537553  0.74352743  1 0.112742
  H  H38  1  0.69508890  0.77530895  0.68433404  1 0.113186
  H  H39  1  0.26170313  0.10348070  0.91147890  1 0.124838
  H  H40  1  0.38123659  0.16462447  0.74352743  1 0.112742
  H  H41  1  0.30491110  0.22469105  0.68433404  1 0.113186
  H  H42  1  0.10348240  0.73829561  0.41148003  1 0.124857
  H  H43  1  0.16462340  0.61876333  0.24352495  1 0.112737
  H  H44  1  0.22468912  0.69508904  0.18433057  1 0.113197
  H  H45  1  0.89651760  0.26170439  0.41148003  1 0.124857
  H  H46  1  0.83537660  0.38123667  0.24352495  1 0.112737
  H  H47  1  0.77531088  0.30491096  0.18433057  1 0.113197
  H  H48  1  0.26170313  0.89651930  0.08852110  1 0.124838
  H  H49  1  0.38123659  0.83537553  0.25647257  1 0.112742
  H  H50  1  0.30491110  0.77530895  0.31566596  1 0.113186
  H  H51  1  0.73829687  0.10348070  0.08852110  1 0.124838
  H  H52  1  0.61876341  0.16462447  0.25647257  1 0.112742
  H  H53  1  0.69508890  0.22469105  0.31566596  1 0.113186
  H  H54  1  0.89651760  0.73829561  0.58851997  1 0.124857
  H  H55  1  0.83537660  0.61876333  0.75647505  1 0.112737
  H  H56  1  0.77531088  0.69508904  0.81566943  1 0.113197
  H  H57  1  0.10348240  0.26170439  0.58851997  1 0.124857
  H  H58  1  0.16462340  0.38123667  0.75647505  1 0.112737
  H  H59  1  0.22468912  0.30491096  0.81566943  1 0.113197
  C  C60  1  0.37083428  0.09640289  0.13008264  1 0.664542
  C  C61  1  0.32591389  0.13100982  0.16855756  1 -0.044878
  C  C62  1  0.27084636  0.13064044  0.13789671  1 -0.080187
  C  C63  1  0.22882962  0.16547750  0.16903471  1 -0.137729
  C  C64  1  0.33835175  0.16490824  0.23274236  1 -0.068576
  C  C65  1  0.24118727  0.20003008  0.23330222  1 0.069633
  C  C66  1  0.29592965  0.19845895  0.26516734  1 -0.126451
  C  C67  1  0.17166813  0.16803427  0.12922636  1 0.687559
  C  C68  1  0.62916572  0.90359711  0.13008264  1 0.664541
  C  C69  1  0.67408611  0.86899018  0.16855756  1 -0.044878
  C  C70  1  0.72915364  0.86935956  0.13789671  1 -0.080187
  C  C71  1  0.77117038  0.83452250  0.16903471  1 -0.137729
  C  C72  1  0.66164825  0.83509176  0.23274236  1 -0.068576
  C  C73  1  0.75881273  0.79996992  0.23330222  1 0.069633
  C  C74  1  0.70407035  0.80154105  0.26516734  1 -0.126451
  C  C75  1  0.82833187  0.83196573  0.12922636  1 0.687559
  C  C76  1  0.90359665  0.37083469  0.63008214  1 0.664489
  C  C77  1  0.86898949  0.32591480  0.66855779  1 -0.044998
  C  C78  1  0.86935869  0.27084703  0.63789625  1 -0.080228
  C  C79  1  0.83452205  0.22883041  0.66903535  1 -0.137648
  C  C80  1  0.83509239  0.33835169  0.73274355  1 -0.068567
  C  C81  1  0.79997065  0.24118784  0.73330462  1 0.069576
  C  C82  1  0.80154225  0.29592989  0.76517038  1 -0.126347
  C  C83  1  0.83196553  0.17166940  0.62922553  1 0.687539
  C  C84  1  0.09640335  0.62916531  0.63008214  1 0.664489
  C  C85  1  0.13101051  0.67408520  0.66855779  1 -0.044998
  C  C86  1  0.13064131  0.72915297  0.63789625  1 -0.080228
  C  C87  1  0.16547795  0.77116959  0.66903535  1 -0.137648
  C  C88  1  0.16490761  0.66164831  0.73274355  1 -0.068567
  C  C89  1  0.20002935  0.75881216  0.73330462  1 0.069576
  C  C90  1  0.19845775  0.70407011  0.76517038  1 -0.126347
  C  C91  1  0.16803447  0.82833060  0.62922553  1 0.687539
  C  C92  1  0.62916572  0.09640289  0.86991736  1 0.664542
  C  C93  1  0.67408611  0.13100982  0.83144244  1 -0.044878
  C  C94  1  0.72915364  0.13064044  0.86210329  1 -0.080187
  C  C95  1  0.77117038  0.16547750  0.83096529  1 -0.137729
  C  C96  1  0.66164825  0.16490824  0.76725764  1 -0.068576
  C  C97  1  0.75881273  0.20003008  0.76669778  1 0.069632
  C  C98  1  0.70407035  0.19845895  0.73483266  1 -0.126451
  C  C99  1  0.82833187  0.16803427  0.87077364  1 0.687559
  C  C100  1  0.37083428  0.90359711  0.86991736  1 0.664542
  C  C101  1  0.32591389  0.86899018  0.83144244  1 -0.044878
  C  C102  1  0.27084636  0.86935956  0.86210329  1 -0.080187
  C  C103  1  0.22882962  0.83452250  0.83096529  1 -0.137729
  C  C104  1  0.33835175  0.83509176  0.76725764  1 -0.068576
  C  C105  1  0.24118727  0.79996992  0.76669778  1 0.069632
  C  C106  1  0.29592965  0.80154105  0.73483266  1 -0.126451
  C  C107  1  0.17166813  0.83196573  0.87077364  1 0.687559
  C  C108  1  0.09640335  0.37083469  0.36991786  1 0.664489
  C  C109  1  0.13101051  0.32591480  0.33144221  1 -0.044998
  C  C110  1  0.13064131  0.27084703  0.36210375  1 -0.080228
  C  C111  1  0.16547795  0.22883041  0.33096465  1 -0.137648
  C  C112  1  0.16490761  0.33835169  0.26725645  1 -0.068567
  C  C113  1  0.20002935  0.24118784  0.26669538  1 0.069576
  C  C114  1  0.19845775  0.29592989  0.23482962  1 -0.126347
  C  C115  1  0.16803447  0.17166940  0.37077447  1 0.687539
  C  C116  1  0.90359665  0.62916531  0.36991786  1 0.664489
  C  C117  1  0.86898949  0.67408520  0.33144221  1 -0.044998
  C  C118  1  0.86935869  0.72915297  0.36210375  1 -0.080228
  C  C119  1  0.83452205  0.77116959  0.33096465  1 -0.137648
  C  C120  1  0.83509239  0.66164831  0.26725645  1 -0.068567
  C  C121  1  0.79997065  0.75881216  0.26669538  1 0.069576
  C  C122  1  0.80154225  0.70407011  0.23482962  1 -0.126347
  C  C123  1  0.83196553  0.82833060  0.37077447  1 0.687539
  C  C124  1  0.62916572  0.90359711  0.86991736  1 0.664542
  C  C125  1  0.67408611  0.86899018  0.83144244  1 -0.044878
  C  C126  1  0.72915364  0.86935956  0.86210329  1 -0.080187
  C  C127  1  0.77117038  0.83452250  0.83096529  1 -0.137729
  C  C128  1  0.66164825  0.83509176  0.76725764  1 -0.068576
  C  C129  1  0.75881273  0.79996992  0.76669778  1 0.069633
  C  C130  1  0.70407035  0.80154105  0.73483266  1 -0.126451
  C  C131  1  0.82833187  0.83196573  0.87077364  1 0.687559
  C  C132  1  0.37083428  0.09640289  0.86991736  1 0.664542
  C  C133  1  0.32591389  0.13100982  0.83144244  1 -0.044878
  C  C134  1  0.27084636  0.13064044  0.86210329  1 -0.080187
  C  C135  1  0.22882962  0.16547750  0.83096529  1 -0.137729
  C  C136  1  0.33835175  0.16490824  0.76725764  1 -0.068576
  C  C137  1  0.24118727  0.20003008  0.76669778  1 0.069633
  C  C138  1  0.29592965  0.19845895  0.73483266  1 -0.126451
  C  C139  1  0.17166813  0.16803427  0.87077364  1 0.687559
  C  C140  1  0.09640335  0.62916531  0.36991786  1 0.664489
  C  C141  1  0.13101051  0.67408520  0.33144221  1 -0.044998
  C  C142  1  0.13064131  0.72915297  0.36210375  1 -0.080228
  C  C143  1  0.16547795  0.77116959  0.33096465  1 -0.137648
  C  C144  1  0.16490761  0.66164831  0.26725645  1 -0.068567
  C  C145  1  0.20002935  0.75881216  0.26669538  1 0.069577
  C  C146  1  0.19845775  0.70407011  0.23482962  1 -0.126347
  C  C147  1  0.16803447  0.82833060  0.37077447  1 0.687539
  C  C148  1  0.90359665  0.37083469  0.36991786  1 0.664489
  C  C149  1  0.86898949  0.32591480  0.33144221  1 -0.044998
  C  C150  1  0.86935869  0.27084703  0.36210375  1 -0.080228
  C  C151  1  0.83452205  0.22883041  0.33096465  1 -0.137648
  C  C152  1  0.83509239  0.33835169  0.26725645  1 -0.068567
  C  C153  1  0.79997065  0.24118784  0.26669538  1 0.069577
  C  C154  1  0.80154225  0.29592989  0.23482962  1 -0.126347
  C  C155  1  0.83196553  0.17166940  0.37077447  1 0.687539
  C  C156  1  0.37083428  0.90359711  0.13008264  1 0.664542
  C  C157  1  0.32591389  0.86899018  0.16855756  1 -0.044878
  C  C158  1  0.27084636  0.86935956  0.13789671  1 -0.080187
  C  C159  1  0.22882962  0.83452250  0.16903471  1 -0.137729
  C  C160  1  0.33835175  0.83509176  0.23274236  1 -0.068576
  C  C161  1  0.24118727  0.79996992  0.23330222  1 0.069632
  C  C162  1  0.29592965  0.80154105  0.26516734  1 -0.126451
  C  C163  1  0.17166813  0.83196573  0.12922636  1 0.687559
  C  C164  1  0.62916572  0.09640289  0.13008264  1 0.664542
  C  C165  1  0.67408611  0.13100982  0.16855756  1 -0.044878
  C  C166  1  0.72915364  0.13064044  0.13789671  1 -0.080187
  C  C167  1  0.77117038  0.16547750  0.16903471  1 -0.137729
  C  C168  1  0.66164825  0.16490824  0.23274236  1 -0.068576
  C  C169  1  0.75881273  0.20003008  0.23330222  1 0.069632
  C  C170  1  0.70407035  0.19845895  0.26516734  1 -0.126451
  C  C171  1  0.82833187  0.16803427  0.12922636  1 0.687559
  C  C172  1  0.90359665  0.62916531  0.63008214  1 0.664489
  C  C173  1  0.86898949  0.67408520  0.66855779  1 -0.044998
  C  C174  1  0.86935869  0.72915297  0.63789625  1 -0.080228
  C  C175  1  0.83452205  0.77116959  0.66903535  1 -0.137648
  C  C176  1  0.83509239  0.66164831  0.73274355  1 -0.068567
  C  C177  1  0.79997065  0.75881216  0.73330462  1 0.069576
  C  C178  1  0.80154225  0.70407011  0.76517038  1 -0.126347
  C  C179  1  0.83196553  0.82833060  0.62922553  1 0.687539
  C  C180  1  0.09640335  0.37083469  0.63008214  1 0.664489
  C  C181  1  0.13101051  0.32591480  0.66855779  1 -0.044998
  C  C182  1  0.13064131  0.27084703  0.63789625  1 -0.080228
  C  C183  1  0.16547795  0.22883041  0.66903535  1 -0.137648
  C  C184  1  0.16490761  0.33835169  0.73274355  1 -0.068567
  C  C185  1  0.20002935  0.24118784  0.73330462  1 0.069576
  C  C186  1  0.19845775  0.29592989  0.76517038  1 -0.126347
  C  C187  1  0.16803447  0.17166940  0.62922553  1 0.687539
  O  O188  1  0.35381832  0.05986650  0.08135488  1 -0.573193
  O  O189  1  0.42313048  0.10722084  0.14822096  1 -0.649477
  O  O190  1  0.64618168  0.94013350  0.08135488  1 -0.573193
  O  O191  1  0.57686952  0.89277916  0.14822096  1 -0.649477
  O  O192  1  0.94013298  0.35381942  0.58135522  1 -0.573139
  O  O193  1  0.89277815  0.42313051  0.64822083  1 -0.64944
  O  O194  1  0.05986702  0.64618058  0.58135522  1 -0.573139
  O  O195  1  0.10722185  0.57686949  0.64822083  1 -0.64944
  O  O196  1  0.64618168  0.05986650  0.91864512  1 -0.573193
  O  O197  1  0.57686952  0.10722084  0.85177904  1 -0.649477
  O  O198  1  0.35381832  0.94013350  0.91864512  1 -0.573193
  O  O199  1  0.42313048  0.89277916  0.85177904  1 -0.649477
  O  O200  1  0.05986702  0.35381942  0.41864478  1 -0.573139
  O  O201  1  0.10722185  0.42313051  0.35177917  1 -0.64944
  O  O202  1  0.94013298  0.64618058  0.41864478  1 -0.573138
  O  O203  1  0.89277815  0.57686949  0.35177917  1 -0.64944
  O  O204  1  0.64618168  0.94013350  0.91864512  1 -0.573193
  O  O205  1  0.57686952  0.89277916  0.85177904  1 -0.649477
  O  O206  1  0.35381832  0.05986650  0.91864512  1 -0.573193
  O  O207  1  0.42313048  0.10722084  0.85177904  1 -0.649477
  O  O208  1  0.05986702  0.64618058  0.41864478  1 -0.573139
  O  O209  1  0.10722185  0.57686949  0.35177917  1 -0.64944
  O  O210  1  0.94013298  0.35381942  0.41864478  1 -0.573139
  O  O211  1  0.89277815  0.42313051  0.35177917  1 -0.64944
  O  O212  1  0.35381832  0.94013350  0.08135488  1 -0.573193
  O  O213  1  0.42313048  0.89277916  0.14822096  1 -0.649477
  O  O214  1  0.64618168  0.05986650  0.08135488  1 -0.573193
  O  O215  1  0.57686952  0.10722084  0.14822096  1 -0.649477
  O  O216  1  0.94013298  0.64618058  0.58135522  1 -0.573139
  O  O217  1  0.89277815  0.57686949  0.64822083  1 -0.64944
  O  O218  1  0.05986702  0.35381942  0.58135522  1 -0.573139
  O  O219  1  0.10722185  0.42313051  0.64822083  1 -0.64944
  O  O220  1  0.44839881  0.00000000  0.10410130  1 -1.156354
  O  O221  1  0.55160119  0.00000000  0.10410130  1 -1.156354
  O  O222  1  0.00000000  0.44839894  0.60410150  1 -1.156378
  O  O223  1  0.00000000  0.55160106  0.60410150  1 -1.156378
  O  O224  1  0.55160119  0.00000000  0.89589870  1 -1.156354
  O  O225  1  0.44839881  0.00000000  0.89589870  1 -1.156354
  O  O226  1  0.00000000  0.44839894  0.39589850  1 -1.156378
  O  O227  1  0.00000000  0.55160106  0.39589850  1 -1.156378
  O  O228  1  0.44805595  0.92210825  0.00000000  1 -1.159131
  O  O229  1  0.55194405  0.07789175  0.00000000  1 -1.159131
  O  O230  1  0.07789187  0.44805613  0.50000000  1 -1.159152
  O  O231  1  0.92210813  0.55194387  0.50000000  1 -1.159152
  O  O232  1  0.55194405  0.92210825  0.00000000  1 -1.159131
  O  O233  1  0.44805595  0.07789175  0.00000000  1 -1.159131
  O  O234  1  0.92210813  0.44805613  0.50000000  1 -1.159152
  O  O235  1  0.07789187  0.55194387  0.50000000  1 -1.159152
  F  F236  1  0.12674901  0.17087195  0.17876659  1 -0.21192
  F  F237  1  0.16845126  0.21551160  0.08299966  1 -0.233698
  F  F238  1  0.16285651  0.12213627  0.08289746  1 -0.207054
  F  F239  1  0.87325099  0.82912805  0.17876659  1 -0.21192
  F  F240  1  0.83154874  0.78448840  0.08299966  1 -0.233698
  F  F241  1  0.83714349  0.87786373  0.08289746  1 -0.207054
  F  F242  1  0.82912805  0.12675061  0.67876600  1 -0.211893
  F  F243  1  0.78448694  0.16845279  0.58300114  1 -0.233705
  F  F244  1  0.87786267  0.16285887  0.58289625  1 -0.207055
  F  F245  1  0.17087195  0.87324939  0.67876600  1 -0.211893
  F  F246  1  0.21551306  0.83154721  0.58300114  1 -0.233705
  F  F247  1  0.12213733  0.83714113  0.58289625  1 -0.207055
  F  F248  1  0.87325099  0.17087195  0.82123341  1 -0.21192
  F  F249  1  0.83154874  0.21551160  0.91700034  1 -0.233698
  F  F250  1  0.83714349  0.12213627  0.91710254  1 -0.207054
  F  F251  1  0.12674901  0.82912805  0.82123341  1 -0.21192
  F  F252  1  0.16845126  0.78448840  0.91700034  1 -0.233698
  F  F253  1  0.16285651  0.87786373  0.91710254  1 -0.207054
  F  F254  1  0.17087195  0.12675061  0.32123400  1 -0.211894
  F  F255  1  0.21551306  0.16845279  0.41699886  1 -0.233705
  F  F256  1  0.12213733  0.16285887  0.41710375  1 -0.207055
  F  F257  1  0.82912805  0.87324939  0.32123400  1 -0.211894
  F  F258  1  0.78448694  0.83154721  0.41699886  1 -0.233705
  F  F259  1  0.87786267  0.83714113  0.41710375  1 -0.207055
  F  F260  1  0.87325099  0.82912805  0.82123341  1 -0.21192
  F  F261  1  0.83154874  0.78448840  0.91700034  1 -0.233697
  F  F262  1  0.83714349  0.87786373  0.91710254  1 -0.207055
  F  F263  1  0.12674901  0.17087195  0.82123341  1 -0.21192
  F  F264  1  0.16845126  0.21551160  0.91700034  1 -0.233697
  F  F265  1  0.16285651  0.12213627  0.91710254  1 -0.207055
  F  F266  1  0.17087195  0.87324939  0.32123400  1 -0.211894
  F  F267  1  0.21551306  0.83154721  0.41699886  1 -0.233704
  F  F268  1  0.12213733  0.83714113  0.41710375  1 -0.207056
  F  F269  1  0.82912805  0.12675061  0.32123400  1 -0.211894
  F  F270  1  0.78448694  0.16845279  0.41699886  1 -0.233704
  F  F271  1  0.87786267  0.16285887  0.41710375  1 -0.207056
  F  F272  1  0.12674901  0.82912805  0.17876659  1 -0.21192
  F  F273  1  0.16845126  0.78448840  0.08299966  1 -0.233697
  F  F274  1  0.16285651  0.87786373  0.08289746  1 -0.207055
  F  F275  1  0.87325099  0.17087195  0.17876659  1 -0.21192
  F  F276  1  0.83154874  0.21551160  0.08299966  1 -0.233697
  F  F277  1  0.83714349  0.12213627  0.08289746  1 -0.207055
  F  F278  1  0.82912805  0.87324939  0.67876600  1 -0.211894
  F  F279  1  0.78448694  0.83154721  0.58300114  1 -0.233704
  F  F280  1  0.87786267  0.83714113  0.58289625  1 -0.207056
  F  F281  1  0.17087195  0.12675061  0.67876600  1 -0.211894
  F  F282  1  0.21551306  0.16845279  0.58300114  1 -0.233704
  F  F283  1  0.12213733  0.16285887  0.58289625  1 -0.207056
