# generated using pymatgen
data_Cu3H19C36N5O12
_symmetry_space_group_name_H-M   'P 1'
_cell_length_a   13.78426942
_cell_length_b   19.03959463
_cell_length_c   31.38193346
_cell_angle_alpha   89.98349583
_cell_angle_beta   100.64388782
_cell_angle_gamma   90.01700380
_symmetry_Int_Tables_number   1
_chemical_formula_structural   Cu3H19C36N5O12
_chemical_formula_sum   'Cu12 H76 C144 N20 O48'
_cell_volume   8094.38173832
_cell_formula_units_Z   4
loop_
 _symmetry_equiv_pos_site_id
 _symmetry_equiv_pos_as_xyz
  1  'x, y, z'
loop_
 _atom_site_type_symbol
 _atom_site_label
 _atom_site_symmetry_multiplicity
 _atom_site_fract_x
 _atom_site_fract_y
 _atom_site_fract_z
 _atom_site_occupancy
 _atom_site_charge
  Cu  Cu0  1  0.80649616  0.27988865  0.22727459  1 0.776506
  Cu  Cu1  1  0.30647971  0.77991909  0.72723233  1 0.801593
  Cu  Cu2  1  0.19324691  0.28002944  0.77279856  1 0.718782
  Cu  Cu3  1  0.69353725  0.77990749  0.27276075  1 0.720427
  Cu  Cu4  1  0.19349865  0.72010825  0.77273101  1 0.738795
  Cu  Cu5  1  0.69353685  0.22009192  0.27276079  1 0.772368
  Cu  Cu6  1  0.80649552  0.72011185  0.22727462  1 0.782649
  Cu  Cu7  1  0.30667426  0.21996227  0.72718108  1 0.771746
  Cu  Cu8  1  0.91162230  0.00000061  0.48465342  1 0.82325
  Cu  Cu9  1  0.41128468  0.49999861  0.98457782  1 0.825772
  Cu  Cu10  1  0.08837499  -0.00000055  0.51534625  1 0.826524
  Cu  Cu11  1  0.58871162  0.49999917  0.01541986  1 0.823545
  H  H12  1  0.67069680  0.22216445  0.36845144  1 0.096281
  H  H13  1  0.52736212  0.22024182  0.40764372  1 0.115516
  H  H14  1  0.35029273  0.13575965  0.29109484  1 0.121239
  H  H15  1  0.50271318  0.13887217  0.25730399  1 0.099809
  H  H16  1  0.20925339  0.11450405  0.42052402  1 0.120783
  H  H17  1  0.89740580  0.15322875  0.38494490  1 0.129112
  H  H18  1  0.09206408  0.22170664  0.30074750  1 0.12591
  H  H19  1  0.66772799  0.38577237  0.36314740  1 0.124909
  H  H20  1  0.34507843  0.19603894  0.40541196  1 0.067497
  H  H21  1  0.17069373  0.72216624  0.86845019  1 0.096062
  H  H22  1  0.02735779  0.72024755  0.90764626  1 0.115432
  H  H23  1  0.85029101  0.63576155  0.79109136  1 0.120585
  H  H24  1  0.00271285  0.63887432  0.75730255  1 0.099335
  H  H25  1  0.70928369  0.61450759  0.92052373  1 0.120845
  H  H26  1  0.39737899  0.65323812  0.88493263  1 0.129587
  H  H27  1  0.59205311  0.72170628  0.80075283  1 0.125499
  H  H28  1  0.16772298  0.88577223  0.86314414  1 0.126097
  H  H29  1  0.84508044  0.69604628  0.90540930  1 0.067728
  H  H30  1  0.32934300  0.22214262  0.63154932  1 0.095787
  H  H31  1  0.47265381  0.22024835  0.59234272  1 0.116365
  H  H32  1  0.64973477  0.13575901  0.70890630  1 0.121367
  H  H33  1  0.49729231  0.13886825  0.74267650  1 0.098782
  H  H34  1  0.79074785  0.11450580  0.57947731  1 0.121183
  H  H35  1  0.10260400  0.15322461  0.61505162  1 0.128853
  H  H36  1  0.90792703  0.22171021  0.69925152  1 0.126482
  H  H37  1  0.33229954  0.38575699  0.63685055  1 0.125324
  H  H38  1  0.65492549  0.19604132  0.59459154  1 0.067727
  H  H39  1  0.82930645  0.72216840  0.13155061  1 0.095768
  H  H40  1  0.97263920  0.72024802  0.09235266  1 0.115701
  H  H41  1  0.14970601  0.63576170  0.20890887  1 0.121439
  H  H42  1  0.99728538  0.63887534  0.24269998  1 0.099077
  H  H43  1  0.29071404  0.61450734  0.07947590  1 0.120716
  H  H44  1  0.60262379  0.65323868  0.11506848  1 0.128721
  H  H45  1  0.40794771  0.72170500  0.19924616  1 0.126673
  H  H46  1  0.83227208  0.88577834  0.13685651  1 0.124868
  H  H47  1  0.15491898  0.69604698  0.09459002  1 0.067718
  H  H48  1  0.32930266  0.77783719  0.63154743  1 0.09606
  H  H49  1  0.47263956  0.77975779  0.59235608  1 0.116283
  H  H50  1  0.64970767  0.86424014  0.70890484  1 0.121259
  H  H51  1  0.49728866  0.86112960  0.74269569  1 0.098864
  H  H52  1  0.79074760  0.88549611  0.57947649  1 0.121233
  H  H53  1  0.10259302  0.84677150  0.61505492  1 0.128762
  H  H54  1  0.90793567  0.77829348  0.69925126  1 0.126686
  H  H55  1  0.33227081  0.61422953  0.63685596  1 0.125289
  H  H56  1  0.65492210  0.80396126  0.59458812  1 0.06843
  H  H57  1  0.82930636  0.27783204  0.13155067  1 0.096049
  H  H58  1  0.97264034  0.27975288  0.09235420  1 0.115675
  H  H59  1  0.14970752  0.36423824  0.20890885  1 0.121198
  H  H60  1  0.99728539  0.36112418  0.24269816  1 0.099285
  H  H61  1  0.29071498  0.38549233  0.07947561  1 0.120483
  H  H62  1  0.60262606  0.34676160  0.11506809  1 0.128722
  H  H63  1  0.40794690  0.27829297  0.19924864  1 0.126184
  H  H64  1  0.83227433  0.11422636  0.13685449  1 0.124635
  H  H65  1  0.15491916  0.30395321  0.09459061  1 0.067589
  H  H66  1  0.67069693  0.77783506  0.36845142  1 0.095965
  H  H67  1  0.52736337  0.77975721  0.40764530  1 0.115011
  H  H68  1  0.35029421  0.86424035  0.29109481  1 0.120615
  H  H69  1  0.50271342  0.86112821  0.25730211  1 0.099271
  H  H70  1  0.20925426  0.88549614  0.42052368  1 0.120949
  H  H71  1  0.89740891  0.84677095  0.38494455  1 0.129399
  H  H72  1  0.09206331  0.77829528  0.30074992  1 0.126118
  H  H73  1  0.66773052  0.61422114  0.36314514  1 0.125518
  H  H74  1  0.34507855  0.80396083  0.40541245  1 0.067442
  H  H75  1  0.17065500  0.27785382  0.86844839  1 0.096074
  H  H76  1  0.02734408  0.27974675  0.90765880  1 0.115572
  H  H77  1  0.85026582  0.36423876  0.79109013  1 0.120624
  H  H78  1  0.00270815  0.36112877  0.75732164  1 0.098923
  H  H79  1  0.70928334  0.38549026  0.92052273  1 0.120738
  H  H80  1  0.39736980  0.34676356  0.88493459  1 0.129308
  H  H81  1  0.59206346  0.27828980  0.80075310  1 0.125581
  H  H82  1  0.16771450  0.11422998  0.86314645  1 0.125779
  H  H83  1  0.84507705  0.30395099  0.90540582  1 0.067318
  H  H84  1  0.76983623  0.50000022  0.26139383  1 0.131543
  H  H85  1  0.26985638  -0.00000563  0.76139054  1 0.13125
  H  H86  1  0.23015333  0.50000543  0.73860936  1 0.132536
  H  H87  1  0.73016690  -0.00000036  0.23860813  1 0.13246
  C  C88  1  0.59848723  0.20250840  0.35282646  1 0.108663
  C  C89  1  0.51846425  0.20156927  0.37428262  1 -0.178996
  C  C90  1  0.42646101  0.17877372  0.35175028  1 0.101226
  C  C91  1  0.42074946  0.15427693  0.30913540  1 -0.157111
  C  C92  1  0.50434529  0.15615667  0.29055506  1 0.102594
  C  C93  1  0.33669905  0.18235819  0.37067854  1 0.079827
  C  C94  1  0.16276707  0.17154829  0.36012081  1 0.202271
  C  C95  1  0.14810729  0.13906146  0.39862615  1 -0.171474
  C  C96  1  0.05242037  0.13281997  0.40732381  1 -0.014577
  C  C97  1  0.97175846  0.16031477  0.37866790  1 -0.095894
  C  C98  1  0.98648185  0.19376223  0.34072794  1 -0.016369
  C  C99  1  0.08112683  0.19857486  0.33123499  1 -0.14472
  C  C100  1  0.03458318  0.08998713  0.44493332  1 0.582839
  C  C101  1  0.89922296  0.21780599  0.30837533  1 0.578231
  C  C102  1  0.68414238  0.43538569  0.34878962  1 -0.120932
  C  C103  1  0.71998054  0.43617151  0.31026087  1 -0.020259
  C  C104  1  0.73354352  0.36808615  0.28805375  1 0.579631
  C  C105  1  0.09848184  0.70250434  0.85282977  1 0.107455
  C  C106  1  0.01846046  0.70157193  0.87428595  1 -0.179431
  C  C107  1  0.92646246  0.67877174  0.85174917  1 0.100757
  C  C108  1  0.92074230  0.65427873  0.80913486  1 -0.157891
  C  C109  1  0.00434203  0.65615146  0.79055535  1 0.101874
  C  C110  1  0.83670395  0.68236060  0.87067698  1 0.080213
  C  C111  1  0.66275413  0.67152936  0.86012567  1 0.203216
  C  C112  1  0.64810000  0.63904815  0.89864234  1 -0.171419
  C  C113  1  0.55238821  0.63282821  0.90737317  1 -0.015223
  C  C114  1  0.47174142  0.66030811  0.87867719  1 -0.096074
  C  C115  1  0.48648984  0.69375889  0.84073751  1 -0.013244
  C  C116  1  0.58111945  0.69857559  0.83124252  1 -0.145789
  C  C117  1  0.53453373  0.58989679  0.94504108  1 0.583476
  C  C118  1  0.39921926  0.71779928  0.80837630  1 0.577918
  C  C119  1  0.18414325  0.93537720  0.84878991  1 -0.120913
  C  C120  1  0.21993695  0.93618460  0.81025683  1 -0.016367
  C  C121  1  0.23353644  0.86810122  0.78805309  1 0.578716
  C  C122  1  0.40157433  0.20249700  0.64715357  1 0.10826
  C  C123  1  0.48157809  0.20159183  0.62570541  1 -0.178867
  C  C124  1  0.57354564  0.17876647  0.64824403  1 0.101786
  C  C125  1  0.57930054  0.15428694  0.69086632  1 -0.157214
  C  C126  1  0.49570113  0.15614419  0.70942141  1 0.102391
  C  C127  1  0.66329965  0.18235561  0.62932752  1 0.079825
  C  C128  1  0.83723688  0.17154089  0.63987538  1 0.202363
  C  C129  1  0.85189273  0.13906040  0.60137821  1 -0.171723
  C  C130  1  0.94757897  0.13282736  0.59267888  1 -0.013862
  C  C131  1  0.02827119  0.16032412  0.62134274  1 -0.097942
  C  C132  1  0.01363467  0.19380185  0.65930432  1 -0.01109
  C  C133  1  0.91890776  0.19858964  0.66876874  1 -0.145192
  C  C134  1  0.96542560  0.08998867  0.55507003  1 0.58299
  C  C135  1  0.10110789  0.21790892  0.69173959  1 0.572959
  C  C136  1  0.31585860  0.43534544  0.65122195  1 -0.122661
  C  C137  1  0.28002092  0.43609481  0.68976684  1 -0.015874
  C  C138  1  0.26639659  0.36777998  0.71203320  1 0.575501
  C  C139  1  0.90151580  0.70250921  0.14716982  1 0.10879
  C  C140  1  0.98153822  0.70157118  0.12571530  1 -0.178633
  C  C141  1  0.07353224  0.67877213  0.14824908  1 0.101583
  C  C142  1  0.07925376  0.65427689  0.19086816  1 -0.157048
  C  C143  1  0.99565385  0.65615610  0.20944514  1 0.102556
  C  C144  1  0.16329351  0.68236078  0.12932343  1 0.079546
  C  C145  1  0.33723699  0.67152418  0.13987081  1 0.202603
  C  C146  1  0.35189522  0.63904978  0.10136001  1 -0.171667
  C  C147  1  0.44760631  0.63282632  0.09262390  1 -0.014843
  C  C148  1  0.52825797  0.66031030  0.12132407  1 -0.097491
  C  C149  1  0.51350925  0.69375738  0.15926157  1 -0.011502
  C  C150  1  0.41887361  0.69857521  0.16875735  1 -0.145131
  C  C151  1  0.46547260  0.58989491  0.05495915  1 0.58368
  C  C152  1  0.60080566  0.71780791  0.19163069  1 0.574666
  C  C153  1  0.81585311  0.93538070  0.15121253  1 -0.122239
  C  C154  1  0.78002182  0.93617554  0.18974078  1 -0.015794
  C  C155  1  0.76646872  0.86807820  0.21194731  1 0.576048
  C  C156  1  0.40151368  0.79749457  0.64717114  1 0.109437
  C  C157  1  0.48153744  0.79842991  0.62571696  1 -0.178641
  C  C158  1  0.57354144  0.82122490  0.64824987  1 0.102034
  C  C159  1  0.57925327  0.84572222  0.69086459  1 -0.156805
  C  C160  1  0.49565808  0.84384729  0.70944404  1 0.103372
  C  C161  1  0.66330399  0.81764219  0.62932138  1 0.079508
  C  C162  1  0.83723959  0.82845033  0.63987999  1 0.202365
  C  C163  1  0.85189665  0.86093761  0.60137440  1 -0.171125
  C  C164  1  0.94758499  0.86717742  0.59267915  1 -0.014274
  C  C165  1  0.02824554  0.83968158  0.62133513  1 -0.096947
  C  C166  1  0.01351296  0.80623578  0.65927112  1 -0.012997
  C  C167  1  0.91887630  0.80142364  0.66876624  1 -0.143954
  C  C168  1  0.96541529  0.91001272  0.55506707  1 0.583325
  C  C169  1  0.10076168  0.78220316  0.69162018  1 0.57785
  C  C170  1  0.31586277  0.56463155  0.65121795  1 -0.122665
  C  C171  1  0.28002865  0.56381589  0.68974061  1 -0.016783
  C  C172  1  0.26645277  0.63190122  0.71194063  1 0.579256
  C  C173  1  0.90151736  0.29749241  0.14717198  1 0.108777
  C  C174  1  0.98153748  0.29842858  0.12571443  1 -0.178666
  C  C175  1  0.07353470  0.32122916  0.14825093  1 0.101663
  C  C176  1  0.07925450  0.34572221  0.19086543  1 -0.157056
  C  C177  1  0.99565569  0.34384515  0.20944588  1 0.102678
  C  C178  1  0.16329305  0.31763892  0.12932312  1 0.079468
  C  C179  1  0.33723705  0.32847294  0.13987343  1 0.202356
  C  C180  1  0.35189551  0.36095252  0.10135749  1 -0.171184
  C  C181  1  0.44760609  0.36717221  0.09262459  1 -0.015203
  C  C182  1  0.52825706  0.33969296  0.12132058  1 -0.096537
  C  C183  1  0.51350919  0.30624154  0.15926345  1 -0.016281
  C  C184  1  0.41887136  0.30142530  0.16875668  1 -0.144495
  C  C185  1  0.46546854  0.41010430  0.05495877  1 0.58337
  C  C186  1  0.60080127  0.28219422  0.19162794  1 0.578289
  C  C187  1  0.81585584  0.06461310  0.15121011  1 -0.120881
  C  C188  1  0.78002147  0.06382864  0.18974003  1 -0.020472
  C  C189  1  0.76646394  0.13191549  0.21194852  1 0.579677
  C  C190  1  0.59848860  0.79748987  0.35282867  1 0.106922
  C  C191  1  0.51846296  0.79843091  0.37428192  1 -0.179513
  C  C192  1  0.42646340  0.82122493  0.35175221  1 0.100034
  C  C193  1  0.42074960  0.84572393  0.30913283  1 -0.157882
  C  C194  1  0.50434689  0.84384199  0.29055588  1 0.100891
  C  C195  1  0.33669903  0.81764199  0.37067823  1 0.080567
  C  C196  1  0.16276652  0.82845423  0.36012322  1 0.202961
  C  C197  1  0.14810731  0.86093602  0.39862363  1 -0.172322
  C  C198  1  0.05242088  0.86718105  0.40732451  1 -0.014469
  C  C199  1  0.97175760  0.83968226  0.37866440  1 -0.096811
  C  C200  1  0.98648103  0.80623907  0.34072973  1 -0.011851
  C  C201  1  0.08112312  0.80142471  0.33123412  1 -0.146008
  C  C202  1  0.03458000  0.91001282  0.44493257  1 0.582996
  C  C203  1  0.89921993  0.78219153  0.30837268  1 0.574989
  C  C204  1  0.68414406  0.56462053  0.34878790  1 -0.121049
  C  C205  1  0.71998029  0.56382416  0.31026046  1 -0.016007
  C  C206  1  0.73353797  0.63191911  0.28805408  1 0.576351
  C  C207  1  0.09842293  0.29750310  0.85284755  1 0.106502
  C  C208  1  0.01842163  0.29840551  0.87429646  1 -0.179309
  C  C209  1  0.92645866  0.32123632  0.85175470  1 0.10061
  C  C210  1  0.92069685  0.34571136  0.80913252  1 -0.157959
  C  C211  1  0.00429854  0.34385760  0.79057757  1 0.101362
  C  C212  1  0.83670860  0.31764198  0.87067093  1 0.080189
  C  C213  1  0.66275785  0.32848087  0.86013091  1 0.203317
  C  C214  1  0.64810244  0.36095418  0.89863895  1 -0.171591
  C  C215  1  0.55239192  0.36716825  0.90737343  1 -0.015058
  C  C216  1  0.47171920  0.33968385  0.87866662  1 -0.097704
  C  C217  1  0.48637485  0.30619521  0.84070405  1 -0.011476
  C  C218  1  0.58109393  0.30140983  0.83124003  1 -0.146097
  C  C219  1  0.53452772  0.41010185  0.94503786  1 0.583847
  C  C220  1  0.39887817  0.28209251  0.80825999  1 0.572847
  C  C221  1  0.18416273  0.06463767  0.84878151  1 -0.121498
  C  C222  1  0.21997926  0.06390692  0.81022670  1 -0.01492
  C  C223  1  0.23355436  0.13220814  0.78795514  1 0.575453
  C  C224  1  0.66764812  0.49999559  0.36980809  1 0.188892
  C  C225  1  0.74054251  0.50000765  0.29130294  1 -0.08083
  C  C226  1  0.16768418  -0.00001671  0.86980903  1 0.189823
  C  C227  1  0.24056108  0.00002211  0.79129914  1 -0.083293
  C  C228  1  0.33231288  0.50003947  0.63017815  1 0.190721
  C  C229  1  0.25946821  0.49998212  0.70870885  1 -0.080426
  C  C230  1  0.83235278  0.00000578  0.13019222  1 0.189347
  C  C231  1  0.75945534  -0.00000574  0.20869694  1 -0.079641
  N  N232  1  0.59153500  0.18122524  0.31158720  1 -0.23135
  N  N233  1  0.25286237  0.17223373  0.34598119  1 -0.262437
  N  N234  1  0.09152895  0.68121040  0.81159340  1 -0.227082
  N  N235  1  0.75285441  0.67221915  0.84599504  1 -0.262861
  N  N236  1  0.40849981  0.18108833  0.68836156  1 -0.233346
  N  N237  1  0.74714698  0.17223881  0.65401818  1 -0.262068
  N  N238  1  0.90847101  0.68121217  0.18841174  1 -0.233909
  N  N239  1  0.24713982  0.67221723  0.15400400  1 -0.261912
  N  N240  1  0.40847271  0.81877847  0.68840993  1 -0.238671
  N  N241  1  0.74714139  0.82776544  0.65401901  1 -0.261875
  N  N242  1  0.90846703  0.31878628  0.18840843  1 -0.233391
  N  N243  1  0.24714125  0.32778236  0.15400459  1 -0.262115
  N  N244  1  0.59153179  0.81877621  0.31158374  1 -0.22383
  N  N245  1  0.25286393  0.82776651  0.34598170  1 -0.263179
  N  N246  1  0.09149965  0.31892456  0.81164265  1 -0.224985
  N  N247  1  0.75284904  0.32777703  0.84599610  1 -0.26285
  N  N248  1  0.63659994  0.49999917  0.40737057  1 -0.235504
  N  N249  1  0.13660199  0.00000916  0.90736074  1 -0.233932
  N  N250  1  0.36338288  0.49996979  0.59264922  1 -0.235132
  N  N251  1  0.86339785  0.00000082  0.09262779  1 -0.236111
  O  O252  1  0.94502039  0.07285209  0.44523987  1 -0.525319
  O  O253  1  0.11010785  0.07168377  0.47282406  1 -0.52342
  O  O254  1  0.91607483  0.25212069  0.27562307  1 -0.52095
  O  O255  1  0.81467771  0.20024369  0.31582944  1 -0.509413
  O  O256  1  0.78740284  0.36880990  0.25918950  1 -0.507932
  O  O257  1  0.68836752  0.31518058  0.29980030  1 -0.52427
  O  O258  1  0.44492562  0.57270711  0.94522374  1 -0.524886
  O  O259  1  0.61022653  0.57156433  0.97282027  1 -0.522646
  O  O260  1  0.41608733  0.75210873  0.77563877  1 -0.524757
  O  O261  1  0.31469357  0.70023827  0.81584085  1 -0.507034
  O  O262  1  0.28740066  0.86880299  0.75920170  1 -0.509166
  O  O263  1  0.18838627  0.81519115  0.79980588  1 -0.520663
  O  O264  1  0.05497374  0.07285402  0.55476364  1 -0.526076
  O  O265  1  0.88989406  0.07168598  0.52717773  1 -0.522503
  O  O266  1  0.08388685  0.25212994  0.72444894  1 -0.509515
  O  O267  1  0.18546044  0.20015690  0.68416665  1 -0.505086
  O  O268  1  0.21249687  0.36879007  0.74087358  1 -0.495359
  O  O269  1  0.31170156  0.31503477  0.70019182  1 -0.520061
  O  O270  1  0.55507123  0.57270894  0.05477904  1 -0.525146
  O  O271  1  0.38977508  0.57156240  0.02718032  1 -0.523013
  O  O272  1  0.58389087  0.75210830  0.22435624  1 -0.511716
  O  O273  1  0.68530311  0.70023031  0.18415076  1 -0.508079
  O  O274  1  0.71259411  0.86880208  0.24080292  1 -0.498848
  O  O275  1  0.81161677  0.81518948  0.20019372  1 -0.522535
  O  O276  1  0.05497409  0.92714723  0.55476246  1 -0.526355
  O  O277  1  0.88989255  0.92831994  0.52717462  1 -0.522818
  O  O278  1  0.08395059  0.74788695  0.72437538  1 -0.520374
  O  O279  1  0.18531374  0.79974606  0.68417993  1 -0.51169
  O  O280  1  0.21260869  0.63119432  0.74080557  1 -0.505984
  O  O281  1  0.31161709  0.68480531  0.70020031  1 -0.524728
  O  O282  1  0.55507854  0.42729307  0.05477859  1 -0.525028
  O  O283  1  0.38977512  0.42843840  0.02718032  1 -0.523063
  O  O284  1  0.58388722  0.24788522  0.22436295  1 -0.522399
  O  O285  1  0.68531331  0.29977381  0.18414850  1 -0.507482
  O  O286  1  0.71258994  0.13119487  0.24080386  1 -0.509666
  O  O287  1  0.81162742  0.18482164  0.20019006  1 -0.522766
  O  O288  1  0.94502916  0.92714468  0.44523764  1 -0.525315
  O  O289  1  0.11010844  0.92831558  0.47282411  1 -0.523571
  O  O290  1  0.91606878  0.74788627  0.27563027  1 -0.521591
  O  O291  1  0.81468880  0.79975293  0.31582778  1 -0.499128
  O  O292  1  0.78739945  0.63119421  0.25919123  1 -0.508248
  O  O293  1  0.68837807  0.68480798  0.29979741  1 -0.514435
  O  O294  1  0.44492821  0.42729181  0.94522226  1 -0.525094
  O  O295  1  0.61022516  0.42843351  0.97281905  1 -0.52258
  O  O296  1  0.41616103  0.24788457  0.77555918  1 -0.519251
  O  O297  1  0.31455487  0.29985943  0.81584487  1 -0.494546
  O  O298  1  0.28750821  0.13122706  0.75912415  1 -0.505935
  O  O299  1  0.18831676  0.18495271  0.79982761  1 -0.510792
