# generated using pymatgen
data_Zn11H18(C27O32)2
_symmetry_space_group_name_H-M   'P 1'
_cell_length_a   20.91233845
_cell_length_b   20.91233845
_cell_length_c   20.91233845
_cell_angle_alpha   90.00000000
_cell_angle_beta   90.00000000
_cell_angle_gamma   90.00000000
_symmetry_Int_Tables_number   1
_chemical_formula_structural   Zn11H18(C27O32)2
_chemical_formula_sum   'Zn22 H36 C108 O128'
_cell_volume   9145.50721976
_cell_formula_units_Z   2
loop_
 _symmetry_equiv_pos_site_id
 _symmetry_equiv_pos_as_xyz
  1  'x, y, z'
loop_
 _atom_site_type_symbol
 _atom_site_label
 _atom_site_symmetry_multiplicity
 _atom_site_fract_x
 _atom_site_fract_y
 _atom_site_fract_z
 _atom_site_occupancy
 _atom_site_charge
  Zn  Zn0  1  0.18449967  0.18449967  0.18449967  1 0.940904
  Zn  Zn1  1  0.26566062  0.26566062  0.26566062  1 0.897575
  Zn  Zn2  1  0.81550033  0.81550033  0.18449967  1 0.940904
  Zn  Zn3  1  0.73433938  0.73433938  0.26566062  1 0.897575
  Zn  Zn4  1  0.81550033  0.18449967  0.81550033  1 0.940904
  Zn  Zn5  1  0.73433938  0.26566062  0.73433938  1 0.897575
  Zn  Zn6  1  0.18449967  0.81550033  0.81550033  1 0.940904
  Zn  Zn7  1  0.26566062  0.73433938  0.73433938  1 0.897575
  Zn  Zn8  1  0.18449967  0.18449967  0.81550033  1 0.940906
  Zn  Zn9  1  0.26566062  0.26566062  0.73433938  1 0.897575
  Zn  Zn10  1  0.81550033  0.81550033  0.81550033  1 0.940906
  Zn  Zn11  1  0.73433938  0.73433938  0.73433938  1 0.897575
  Zn  Zn12  1  0.18449967  0.81550033  0.18449967  1 0.940906
  Zn  Zn13  1  0.26566062  0.73433938  0.26566062  1 0.897575
  Zn  Zn14  1  0.81550033  0.18449967  0.18449967  1 0.940906
  Zn  Zn15  1  0.73433938  0.26566062  0.26566062  1 0.897575
  Zn  Zn16  1  0.06249562  0.50000000  0.50000000  1 0.994031
  Zn  Zn17  1  0.93750438  0.50000000  0.50000000  1 0.994031
  Zn  Zn18  1  0.50000000  0.06249562  0.50000000  1 0.994031
  Zn  Zn19  1  0.50000000  0.93750438  0.50000000  1 0.994031
  Zn  Zn20  1  0.50000000  0.50000000  0.06249562  1 0.994031
  Zn  Zn21  1  0.50000000  0.50000000  0.93750438  1 0.994031
  H  H22  1  0.10330457  0.35646216  0.35646216  1 0.141174
  H  H23  1  0.89669543  0.64353784  0.35646216  1 0.141174
  H  H24  1  0.89669543  0.35646216  0.64353784  1 0.141174
  H  H25  1  0.10330457  0.64353784  0.64353784  1 0.141174
  H  H26  1  0.35646216  0.10330457  0.35646216  1 0.141174
  H  H27  1  0.35646216  0.89669543  0.64353784  1 0.141174
  H  H28  1  0.64353784  0.89669543  0.35646216  1 0.141174
  H  H29  1  0.64353784  0.10330457  0.64353784  1 0.141174
  H  H30  1  0.35646216  0.35646216  0.10330457  1 0.141174
  H  H31  1  0.64353784  0.35646216  0.89669543  1 0.141174
  H  H32  1  0.35646216  0.64353784  0.89669543  1 0.141174
  H  H33  1  0.64353784  0.64353784  0.10330457  1 0.141174
  H  H34  1  0.35646216  0.10330457  0.64353784  1 0.141174
  H  H35  1  0.64353784  0.89669543  0.64353784  1 0.141174
  H  H36  1  0.35646216  0.89669543  0.35646216  1 0.141174
  H  H37  1  0.64353784  0.10330457  0.35646216  1 0.141174
  H  H38  1  0.10330457  0.35646216  0.64353784  1 0.141174
  H  H39  1  0.89669543  0.35646216  0.35646216  1 0.141174
  H  H40  1  0.89669543  0.64353784  0.64353784  1 0.141174
  H  H41  1  0.10330457  0.64353784  0.35646216  1 0.141174
  H  H42  1  0.35646216  0.35646216  0.89669543  1 0.141174
  H  H43  1  0.35646216  0.64353784  0.10330457  1 0.141174
  H  H44  1  0.64353784  0.35646216  0.10330457  1 0.141174
  H  H45  1  0.64353784  0.64353784  0.89669543  1 0.141174
  H  H46  1  -0.00000000  0.23053847  0.23053847  1 0.122971
  H  H47  1  -0.00000000  0.76946153  0.23053847  1 0.122971
  H  H48  1  -0.00000000  0.23053847  0.76946153  1 0.122971
  H  H49  1  -0.00000000  0.76946153  0.76946153  1 0.122971
  H  H50  1  0.23053847  -0.00000000  0.23053847  1 0.122971
  H  H51  1  0.23053847  -0.00000000  0.76946153  1 0.122971
  H  H52  1  0.76946153  -0.00000000  0.23053847  1 0.122971
  H  H53  1  0.76946153  -0.00000000  0.76946153  1 0.122971
  H  H54  1  0.23053847  0.23053847  0.00000000  1 0.122972
  H  H55  1  0.76946153  0.23053847  0.00000000  1 0.122972
  H  H56  1  0.23053847  0.76946153  0.00000000  1 0.122972
  H  H57  1  0.76946153  0.76946153  0.00000000  1 0.122972
  C  C58  1  0.05822986  0.33796218  0.33796218  1 -0.054912
  C  C59  1  0.05798933  0.29061408  0.29061408  1 -0.046263
  C  C60  1  0.11783356  0.26349598  0.26349598  1 0.613372
  C  C61  1  0.94177014  0.66203782  0.33796218  1 -0.054912
  C  C62  1  0.94201067  0.70938592  0.29061408  1 -0.046263
  C  C63  1  0.88216644  0.73650402  0.26349598  1 0.613372
  C  C64  1  0.94177014  0.33796218  0.66203782  1 -0.054912
  C  C65  1  0.94201067  0.29061408  0.70938592  1 -0.046263
  C  C66  1  0.88216644  0.26349598  0.73650402  1 0.613372
  C  C67  1  0.05822986  0.66203782  0.66203782  1 -0.054912
  C  C68  1  0.05798933  0.70938592  0.70938592  1 -0.046263
  C  C69  1  0.11783356  0.73650402  0.73650402  1 0.613372
  C  C70  1  0.33796218  0.05822986  0.33796218  1 -0.054912
  C  C71  1  0.29061408  0.05798933  0.29061408  1 -0.046263
  C  C72  1  0.26349598  0.11783356  0.26349598  1 0.613372
  C  C73  1  0.33796218  0.94177014  0.66203782  1 -0.054912
  C  C74  1  0.29061408  0.94201067  0.70938592  1 -0.046263
  C  C75  1  0.26349598  0.88216644  0.73650402  1 0.613372
  C  C76  1  0.66203782  0.94177014  0.33796218  1 -0.054912
  C  C77  1  0.70938592  0.94201067  0.29061408  1 -0.046263
  C  C78  1  0.73650402  0.88216644  0.26349598  1 0.613372
  C  C79  1  0.66203782  0.05822986  0.66203782  1 -0.054912
  C  C80  1  0.70938592  0.05798933  0.70938592  1 -0.046263
  C  C81  1  0.73650402  0.11783356  0.73650402  1 0.613372
  C  C82  1  0.33796218  0.33796218  0.05822986  1 -0.054912
  C  C83  1  0.29061408  0.29061408  0.05798933  1 -0.046263
  C  C84  1  0.26349598  0.26349598  0.11783356  1 0.613372
  C  C85  1  0.66203782  0.33796218  0.94177014  1 -0.054912
  C  C86  1  0.70938592  0.29061408  0.94201067  1 -0.046263
  C  C87  1  0.73650402  0.26349598  0.88216644  1 0.613372
  C  C88  1  0.33796218  0.66203782  0.94177014  1 -0.054912
  C  C89  1  0.29061408  0.70938592  0.94201067  1 -0.046263
  C  C90  1  0.26349598  0.73650402  0.88216644  1 0.613372
  C  C91  1  0.66203782  0.66203782  0.05822986  1 -0.054912
  C  C92  1  0.70938592  0.70938592  0.05798933  1 -0.046263
  C  C93  1  0.73650402  0.73650402  0.11783356  1 0.613372
  C  C94  1  0.33796218  0.05822986  0.66203782  1 -0.05491
  C  C95  1  0.29061408  0.05798933  0.70938592  1 -0.046263
  C  C96  1  0.26349598  0.11783356  0.73650402  1 0.613373
  C  C97  1  0.66203782  0.94177014  0.66203782  1 -0.05491
  C  C98  1  0.70938592  0.94201067  0.70938592  1 -0.046263
  C  C99  1  0.73650402  0.88216644  0.73650402  1 0.613373
  C  C100  1  0.33796218  0.94177014  0.33796218  1 -0.05491
  C  C101  1  0.29061408  0.94201067  0.29061408  1 -0.046263
  C  C102  1  0.26349598  0.88216644  0.26349598  1 0.613373
  C  C103  1  0.66203782  0.05822986  0.33796218  1 -0.05491
  C  C104  1  0.70938592  0.05798933  0.29061408  1 -0.046263
  C  C105  1  0.73650402  0.11783356  0.26349598  1 0.613373
  C  C106  1  0.05822986  0.33796218  0.66203782  1 -0.05491
  C  C107  1  0.05798933  0.29061408  0.70938592  1 -0.046263
  C  C108  1  0.11783356  0.26349598  0.73650402  1 0.613372
  C  C109  1  0.94177014  0.33796218  0.33796218  1 -0.05491
  C  C110  1  0.94201067  0.29061408  0.29061408  1 -0.046263
  C  C111  1  0.88216644  0.26349598  0.26349598  1 0.613372
  C  C112  1  0.94177014  0.66203782  0.66203782  1 -0.05491
  C  C113  1  0.94201067  0.70938592  0.70938592  1 -0.046263
  C  C114  1  0.88216644  0.73650402  0.73650402  1 0.613372
  C  C115  1  0.05822986  0.66203782  0.33796218  1 -0.05491
  C  C116  1  0.05798933  0.70938592  0.29061408  1 -0.046263
  C  C117  1  0.11783356  0.73650402  0.26349598  1 0.613372
  C  C118  1  0.33796218  0.33796218  0.94177014  1 -0.05491
  C  C119  1  0.29061408  0.29061408  0.94201067  1 -0.046263
  C  C120  1  0.26349598  0.26349598  0.88216644  1 0.613372
  C  C121  1  0.33796218  0.66203782  0.05822986  1 -0.05491
  C  C122  1  0.29061408  0.70938592  0.05798933  1 -0.046263
  C  C123  1  0.26349598  0.73650402  0.11783356  1 0.613372
  C  C124  1  0.66203782  0.33796218  0.05822986  1 -0.05491
  C  C125  1  0.70938592  0.29061408  0.05798933  1 -0.046263
  C  C126  1  0.73650402  0.26349598  0.11783356  1 0.613372
  C  C127  1  0.66203782  0.66203782  0.94177014  1 -0.05491
  C  C128  1  0.70938592  0.70938592  0.94201067  1 -0.046263
  C  C129  1  0.73650402  0.73650402  0.88216644  1 0.613372
  C  C130  1  -0.00000000  0.36152355  0.36152355  1 -0.037174
  C  C131  1  -0.00000000  0.26725063  0.26725063  1 -0.076744
  C  C132  1  -0.00000000  0.41227615  0.41227615  1 0.593625
  C  C133  1  -0.00000000  0.63847645  0.36152355  1 -0.037174
  C  C134  1  -0.00000000  0.73274937  0.26725063  1 -0.076744
  C  C135  1  -0.00000000  0.58772385  0.41227615  1 0.593625
  C  C136  1  -0.00000000  0.36152355  0.63847645  1 -0.037174
  C  C137  1  -0.00000000  0.26725063  0.73274937  1 -0.076744
  C  C138  1  -0.00000000  0.41227615  0.58772385  1 0.593625
  C  C139  1  -0.00000000  0.63847645  0.63847645  1 -0.037174
  C  C140  1  -0.00000000  0.73274937  0.73274937  1 -0.076744
  C  C141  1  -0.00000000  0.58772385  0.58772385  1 0.593626
  C  C142  1  0.36152355  -0.00000000  0.36152355  1 -0.037174
  C  C143  1  0.26725063  -0.00000000  0.26725063  1 -0.076744
  C  C144  1  0.41227615  -0.00000000  0.41227615  1 0.593625
  C  C145  1  0.36152355  -0.00000000  0.63847645  1 -0.037174
  C  C146  1  0.26725063  -0.00000000  0.73274937  1 -0.076744
  C  C147  1  0.41227615  -0.00000000  0.58772385  1 0.593625
  C  C148  1  0.63847645  -0.00000000  0.36152355  1 -0.037174
  C  C149  1  0.73274937  -0.00000000  0.26725063  1 -0.076744
  C  C150  1  0.58772385  -0.00000000  0.41227615  1 0.593625
  C  C151  1  0.63847645  -0.00000000  0.63847645  1 -0.037174
  C  C152  1  0.73274937  -0.00000000  0.73274937  1 -0.076744
  C  C153  1  0.58772385  -0.00000000  0.58772385  1 0.593626
  C  C154  1  0.36152355  0.36152355  0.00000000  1 -0.037174
  C  C155  1  0.26725063  0.26725063  0.00000000  1 -0.076744
  C  C156  1  0.41227615  0.41227615  0.00000000  1 0.593625
  C  C157  1  0.63847645  0.36152355  0.00000000  1 -0.037174
  C  C158  1  0.73274937  0.26725063  0.00000000  1 -0.076744
  C  C159  1  0.58772385  0.41227615  0.00000000  1 0.593625
  C  C160  1  0.36152355  0.63847645  0.00000000  1 -0.037174
  C  C161  1  0.26725063  0.73274937  0.00000000  1 -0.076744
  C  C162  1  0.41227615  0.58772385  0.00000000  1 0.593625
  C  C163  1  0.63847645  0.63847645  0.00000000  1 -0.037174
  C  C164  1  0.73274937  0.73274937  0.00000000  1 -0.076744
  C  C165  1  0.58772385  0.58772385  0.00000000  1 0.593626
  O  O166  1  0.33873496  0.33873496  0.33873496  1 0.302853
  O  O167  1  0.66126504  0.66126504  0.33873496  1 0.302853
  O  O168  1  0.66126504  0.33873496  0.66126504  1 0.302853
  O  O169  1  0.33873496  0.66126504  0.66126504  1 0.302853
  O  O170  1  0.33873496  0.33873496  0.66126504  1 0.30285
  O  O171  1  0.66126504  0.66126504  0.66126504  1 0.30285
  O  O172  1  0.33873496  0.66126504  0.33873496  1 0.30285
  O  O173  1  0.66126504  0.33873496  0.33873496  1 0.30285
  O  O174  1  0.17174447  0.28290630  0.28290630  1 -0.529216
  O  O175  1  0.05448948  0.43172560  0.43172560  1 -0.540204
  O  O176  1  0.10947612  0.22012042  0.22012042  1 -0.546018
  O  O177  1  0.26676614  0.34691722  0.34691722  1 0.001626
  O  O178  1  0.82825553  0.71709370  0.28290630  1 -0.529216
  O  O179  1  0.94551052  0.56827440  0.43172560  1 -0.540204
  O  O180  1  0.89052388  0.77987958  0.22012042  1 -0.546018
  O  O181  1  0.73323386  0.65308278  0.34691722  1 0.001626
  O  O182  1  0.82825553  0.28290630  0.71709370  1 -0.529216
  O  O183  1  0.94551052  0.43172560  0.56827440  1 -0.540204
  O  O184  1  0.89052388  0.22012042  0.77987958  1 -0.546018
  O  O185  1  0.73323386  0.34691722  0.65308278  1 0.001626
  O  O186  1  0.17174447  0.71709370  0.71709370  1 -0.529216
  O  O187  1  0.05448948  0.56827440  0.56827440  1 -0.540204
  O  O188  1  0.10947612  0.77987958  0.77987958  1 -0.546018
  O  O189  1  0.26676614  0.65308278  0.65308278  1 0.001626
  O  O190  1  0.28290630  0.17174447  0.28290630  1 -0.529216
  O  O191  1  0.43172560  0.05448948  0.43172560  1 -0.540204
  O  O192  1  0.22012042  0.10947612  0.22012042  1 -0.546018
  O  O193  1  0.34691722  0.26676614  0.34691722  1 0.001626
  O  O194  1  0.28290630  0.82825553  0.71709370  1 -0.529216
  O  O195  1  0.43172560  0.94551052  0.56827440  1 -0.540204
  O  O196  1  0.22012042  0.89052388  0.77987958  1 -0.546018
  O  O197  1  0.34691722  0.73323386  0.65308278  1 0.001626
  O  O198  1  0.71709370  0.82825553  0.28290630  1 -0.529216
  O  O199  1  0.56827440  0.94551052  0.43172560  1 -0.540204
  O  O200  1  0.77987958  0.89052388  0.22012042  1 -0.546018
  O  O201  1  0.65308278  0.73323386  0.34691722  1 0.001626
  O  O202  1  0.71709370  0.17174447  0.71709370  1 -0.529216
  O  O203  1  0.56827440  0.05448948  0.56827440  1 -0.540204
  O  O204  1  0.77987958  0.10947612  0.77987958  1 -0.546018
  O  O205  1  0.65308278  0.26676614  0.65308278  1 0.001626
  O  O206  1  0.28290630  0.28290630  0.17174447  1 -0.529216
  O  O207  1  0.43172560  0.43172560  0.05448948  1 -0.540204
  O  O208  1  0.22012042  0.22012042  0.10947612  1 -0.546018
  O  O209  1  0.34691722  0.34691722  0.26676614  1 0.001626
  O  O210  1  0.71709370  0.28290630  0.82825553  1 -0.529216
  O  O211  1  0.56827440  0.43172560  0.94551052  1 -0.540204
  O  O212  1  0.77987958  0.22012042  0.89052388  1 -0.546018
  O  O213  1  0.65308278  0.34691722  0.73323386  1 0.001626
  O  O214  1  0.28290630  0.71709370  0.82825553  1 -0.529216
  O  O215  1  0.43172560  0.56827440  0.94551052  1 -0.540204
  O  O216  1  0.22012042  0.77987958  0.89052388  1 -0.546018
  O  O217  1  0.34691722  0.65308278  0.73323386  1 0.001626
  O  O218  1  0.71709370  0.71709370  0.17174447  1 -0.529216
  O  O219  1  0.56827440  0.56827440  0.05448948  1 -0.540204
  O  O220  1  0.77987958  0.77987958  0.10947612  1 -0.546018
  O  O221  1  0.65308278  0.65308278  0.26676614  1 0.001626
  O  O222  1  0.28290630  0.17174447  0.71709370  1 -0.529217
  O  O223  1  0.43172560  0.05448948  0.56827440  1 -0.540203
  O  O224  1  0.22012042  0.10947612  0.77987958  1 -0.546018
  O  O225  1  0.34691722  0.26676614  0.65308278  1 0.001626
  O  O226  1  0.71709370  0.82825553  0.71709370  1 -0.529217
  O  O227  1  0.56827440  0.94551052  0.56827440  1 -0.540204
  O  O228  1  0.77987958  0.89052388  0.77987958  1 -0.546018
  O  O229  1  0.65308278  0.73323386  0.65308278  1 0.001626
  O  O230  1  0.28290630  0.82825553  0.28290630  1 -0.529217
  O  O231  1  0.43172560  0.94551052  0.43172560  1 -0.540203
  O  O232  1  0.22012042  0.89052388  0.22012042  1 -0.546018
  O  O233  1  0.34691722  0.73323386  0.34691722  1 0.001626
  O  O234  1  0.71709370  0.17174447  0.28290630  1 -0.529217
  O  O235  1  0.56827440  0.05448948  0.43172560  1 -0.540203
  O  O236  1  0.77987958  0.10947612  0.22012042  1 -0.546018
  O  O237  1  0.65308278  0.26676614  0.34691722  1 0.001626
  O  O238  1  0.17174447  0.28290630  0.71709370  1 -0.529217
  O  O239  1  0.05448948  0.43172560  0.56827440  1 -0.540203
  O  O240  1  0.10947612  0.22012042  0.77987958  1 -0.546018
  O  O241  1  0.26676614  0.34691722  0.65308278  1 0.001626
  O  O242  1  0.82825553  0.28290630  0.28290630  1 -0.529217
  O  O243  1  0.94551052  0.43172560  0.43172560  1 -0.540203
  O  O244  1  0.89052388  0.22012042  0.22012042  1 -0.546018
  O  O245  1  0.73323386  0.34691722  0.34691722  1 0.001626
  O  O246  1  0.82825553  0.71709370  0.71709370  1 -0.529217
  O  O247  1  0.94551052  0.56827440  0.56827440  1 -0.540204
  O  O248  1  0.89052388  0.77987958  0.77987958  1 -0.546018
  O  O249  1  0.73323386  0.65308278  0.65308278  1 0.001626
  O  O250  1  0.17174447  0.71709370  0.28290630  1 -0.529217
  O  O251  1  0.05448948  0.56827440  0.43172560  1 -0.540203
  O  O252  1  0.10947612  0.77987958  0.22012042  1 -0.546018
  O  O253  1  0.26676614  0.65308278  0.34691722  1 0.001626
  O  O254  1  0.28290630  0.28290630  0.82825553  1 -0.529216
  O  O255  1  0.43172560  0.43172560  0.94551052  1 -0.540203
  O  O256  1  0.22012042  0.22012042  0.89052388  1 -0.546018
  O  O257  1  0.34691722  0.34691722  0.73323386  1 0.001626
  O  O258  1  0.28290630  0.71709370  0.17174447  1 -0.529216
  O  O259  1  0.43172560  0.56827440  0.05448948  1 -0.540203
  O  O260  1  0.22012042  0.77987958  0.10947612  1 -0.546018
  O  O261  1  0.34691722  0.65308278  0.26676614  1 0.001626
  O  O262  1  0.71709370  0.28290630  0.17174447  1 -0.529216
  O  O263  1  0.56827440  0.43172560  0.05448948  1 -0.540203
  O  O264  1  0.77987958  0.22012042  0.10947612  1 -0.546018
  O  O265  1  0.65308278  0.34691722  0.26676614  1 0.001626
  O  O266  1  0.71709370  0.71709370  0.82825553  1 -0.529216
  O  O267  1  0.56827440  0.56827440  0.94551052  1 -0.540204
  O  O268  1  0.77987958  0.77987958  0.89052388  1 -0.546018
  O  O269  1  0.65308278  0.65308278  0.73323386  1 0.001626
  O  O270  1  0.27743412  0.39786749  0.27743412  1 -0.303185
  O  O271  1  0.72256588  0.60213251  0.27743412  1 -0.303185
  O  O272  1  0.72256588  0.39786749  0.72256588  1 -0.303185
  O  O273  1  0.27743412  0.60213251  0.72256588  1 -0.303185
  O  O274  1  0.27743412  0.27743412  0.39786749  1 -0.303185
  O  O275  1  0.27743412  0.72256588  0.60213251  1 -0.303185
  O  O276  1  0.72256588  0.72256588  0.39786749  1 -0.303185
  O  O277  1  0.72256588  0.27743412  0.60213251  1 -0.303185
  O  O278  1  0.39786749  0.27743412  0.27743412  1 -0.303185
  O  O279  1  0.60213251  0.27743412  0.72256588  1 -0.303185
  O  O280  1  0.39786749  0.72256588  0.72256588  1 -0.303185
  O  O281  1  0.60213251  0.72256588  0.27743412  1 -0.303185
  O  O282  1  0.39786749  0.27743412  0.72256588  1 -0.303184
  O  O283  1  0.60213251  0.72256588  0.72256588  1 -0.303184
  O  O284  1  0.39786749  0.72256588  0.27743412  1 -0.303184
  O  O285  1  0.60213251  0.27743412  0.27743412  1 -0.303184
  O  O286  1  0.27743412  0.27743412  0.60213251  1 -0.303184
  O  O287  1  0.72256588  0.27743412  0.39786749  1 -0.303184
  O  O288  1  0.72256588  0.72256588  0.60213251  1 -0.303184
  O  O289  1  0.27743412  0.72256588  0.39786749  1 -0.303184
  O  O290  1  0.27743412  0.39786749  0.72256588  1 -0.303184
  O  O291  1  0.27743412  0.60213251  0.27743412  1 -0.303184
  O  O292  1  0.72256588  0.39786749  0.27743412  1 -0.303184
  O  O293  1  0.72256588  0.60213251  0.72256588  1 -0.303184
