# generated using pymatgen
data_Cu(CO2)3
_symmetry_space_group_name_H-M   'P 1'
_cell_length_a   8.77337804
_cell_length_b   32.24639658
_cell_length_c   8.71933171
_cell_angle_alpha   90.01870543
_cell_angle_beta   141.10978402
_cell_angle_gamma   90.02326317
_symmetry_Int_Tables_number   1
_chemical_formula_structural   Cu(CO2)3
_chemical_formula_sum   'Cu8 C24 O48'
_cell_volume   1548.72083346
_cell_formula_units_Z   8
loop_
 _symmetry_equiv_pos_site_id
 _symmetry_equiv_pos_as_xyz
  1  'x, y, z'
loop_
 _atom_site_type_symbol
 _atom_site_label
 _atom_site_symmetry_multiplicity
 _atom_site_fract_x
 _atom_site_fract_y
 _atom_site_fract_z
 _atom_site_occupancy
 _atom_site_charge
  Cu  Cu0  1  0.74306250  0.20547687  0.48361011  1 1.006923
  Cu  Cu1  1  0.74517672  0.04401664  0.49373830  1 1.01404
  Cu  Cu2  1  0.25673726  0.70549200  0.01611160  1 1.018093
  Cu  Cu3  1  0.25503973  0.54401634  0.00631497  1 1.006503
  Cu  Cu4  1  0.25690512  0.79451624  0.51634586  1 1.0198
  Cu  Cu5  1  0.25507255  0.95597938  0.50637038  1 1.019244
  Cu  Cu6  1  0.74282251  0.29452452  0.98351479  1 1.012929
  Cu  Cu7  1  0.74503332  0.45597920  0.99386473  1 1.010109
  C  C8  1  0.87596656  0.12497694  0.62159268  1 0.457052
  C  C9  1  0.61178900  0.12456184  0.35471347  1 0.456546
  C  C10  1  0.85727094  0.26182347  0.79522678  1 0.464462
  C  C11  1  0.62771282  0.23874312  0.67015182  1 0.464568
  C  C12  1  0.93726892  0.01119683  0.38358276  1 0.465917
  C  C13  1  0.56191074  0.01192403  0.61439812  1 0.465186
  C  C14  1  0.12411400  0.62490957  0.87826007  1 0.457039
  C  C15  1  0.38827152  0.62462780  0.14509534  1 0.456223
  C  C16  1  0.14246362  0.76176823  0.70457664  1 0.465714
  C  C17  1  0.37210557  0.73878950  0.82968259  1 0.465803
  C  C18  1  0.06295285  0.51123639  0.11656416  1 0.464862
  C  C19  1  0.43829015  0.51187687  0.88574540  1 0.464396
  C  C20  1  0.12414567  0.87502928  0.37842686  1 0.458254
  C  C21  1  0.38834990  0.87542963  0.64535163  1 0.457723
  C  C22  1  0.14251009  0.73819333  0.20459038  1 0.465463
  C  C23  1  0.37212036  0.76126117  0.32969922  1 0.465869
  C  C24  1  0.06301487  0.98880957  0.61654635  1 0.465618
  C  C25  1  0.43836858  0.98806164  0.38574594  1 0.465576
  C  C26  1  0.87564712  0.37507952  0.12166165  1 0.457136
  C  C27  1  0.61150652  0.37539335  0.85476947  1 0.456556
  C  C28  1  0.85733400  0.23823391  0.29522272  1 0.464647
  C  C29  1  0.62764732  0.26119877  0.17011947  1 0.464836
  C  C30  1  0.93720515  0.48875123  0.88367335  1 0.464698
  C  C31  1  0.56187646  0.48812859  0.11451702  1 0.46496
  O  O32  1  0.96463354  0.15957787  0.72897252  1 -0.392804
  O  O33  1  0.98530717  0.09071715  0.71423801  1 -0.392481
  O  O34  1  0.52272657  0.15872955  0.24287658  1 -0.392679
  O  O35  1  0.50348756  0.09010062  0.26710366  1 -0.393296
  O  O36  1  0.54882643  0.20971170  0.52505656  1 -0.401986
  O  O37  1  0.53430023  0.25032680  0.72206966  1 -0.40158
  O  O38  1  0.95022376  0.25039491  0.74266968  1 -0.399954
  O  O39  1  0.93670986  0.29070754  0.94134254  1 -0.404546
  O  O40  1  0.78741519  0.03945011  0.29910174  1 -0.406749
  O  O41  1  0.99294403  0.99988399  0.29319158  1 -0.401523
  O  O42  1  0.70461448  0.04100857  0.69011390  1 -0.406394
  O  O43  1  0.51162391  0.00090479  0.71020819  1 -0.401615
  O  O44  1  0.03537377  0.65946399  0.77081593  1 -0.394766
  O  O45  1  0.01499066  0.59058648  0.78573793  1 -0.392257
  O  O46  1  0.47723668  0.65884295  0.25684310  1 -0.394737
  O  O47  1  0.49689593  0.59023865  0.23304771  1 -0.392379
  O  O48  1  0.45121138  0.70979249  0.97481968  1 -0.405073
  O  O49  1  0.46546544  0.75040542  0.77773541  1 -0.402587
  O  O50  1  0.04963671  0.75027470  0.75721269  1 -0.403048
  O  O51  1  0.06300462  0.79062545  0.55853318  1 -0.40568
  O  O52  1  0.21280976  0.53952654  0.20092148  1 -0.403481
  O  O53  1  0.00731133  0.49997130  0.20703577  1 -0.400766
  O  O54  1  0.29553635  0.54092052  0.80985134  1 -0.403253
  O  O55  1  0.48865598  0.50082112  0.79004090  1 -0.400813
  O  O56  1  0.03542120  0.84043053  0.27103049  1 -0.397156
  O  O57  1  0.01489515  0.90929869  0.28586449  1 -0.395793
  O  O58  1  0.47736049  0.84125748  0.75714308  1 -0.396978
  O  O59  1  0.49672109  0.90988454  0.73300421  1 -0.39642
  O  O60  1  0.45122455  0.79028561  0.47491425  1 -0.404706
  O  O61  1  0.46535203  0.74967320  0.27759355  1 -0.403393
  O  O62  1  0.04954535  0.74961813  0.25713718  1 -0.40188
  O  O63  1  0.06301691  0.70932068  0.05839590  1 -0.406142
  O  O64  1  0.21282901  0.96055107  0.70097898  1 -0.407026
  O  O65  1  0.00735343  0.00012636  0.70694927  1 -0.40129
  O  O66  1  0.29564927  0.95897950  0.31002977  1 -0.406885
  O  O67  1  0.48868070  0.99907688  0.28995654  1 -0.401658
  O  O68  1  0.96436738  0.34052159  0.22905777  1 -0.394784
  O  O69  1  0.98492837  0.40938605  0.21431314  1 -0.393122
  O  O70  1  0.52253015  0.34117675  0.74302422  1 -0.39459
  O  O71  1  0.50309425  0.40980385  0.76706805  1 -0.393585
  O  O72  1  0.54852936  0.29018727  0.02492722  1 -0.403416
  O  O73  1  0.53440943  0.24957179  0.22218834  1 -0.400521
  O  O74  1  0.95011053  0.24971573  0.24252073  1 -0.40119
  O  O75  1  0.93695679  0.20939193  0.44140560  1 -0.403107
  O  O76  1  0.78729969  0.46046946  0.79929976  1 -0.404201
  O  O77  1  0.99294748  0.50001128  0.79328896  1 -0.399895
  O  O78  1  0.70457142  0.45907906  0.19031590  1 -0.404367
  O  O79  1  0.51157222  0.49919362  0.21026822  1 -0.400194
