# generated using pymatgen
data_Cd2H54C45N30Cl
_symmetry_space_group_name_H-M   'P 1'
_cell_length_a   14.46335200
_cell_length_b   18.73463200
_cell_length_c   18.73463179
_cell_angle_alpha   120.00000037
_cell_angle_beta   90.00000000
_cell_angle_gamma   90.00000000
_symmetry_Int_Tables_number   1
_chemical_formula_structural   Cd2H54C45N30Cl
_chemical_formula_sum   'Cd4 H108 C90 N60 Cl2'
_cell_volume   4396.32625864
_cell_formula_units_Z   2
loop_
 _symmetry_equiv_pos_site_id
 _symmetry_equiv_pos_as_xyz
  1  'x, y, z'
loop_
 _atom_site_type_symbol
 _atom_site_label
 _atom_site_symmetry_multiplicity
 _atom_site_fract_x
 _atom_site_fract_y
 _atom_site_fract_z
 _atom_site_occupancy
 _atom_site_charge
  Cd  Cd0  1  0.39441421  0.33104580  0.66775909  1 0.676705
  Cd  Cd1  1  0.89891388  0.66710144  0.32958397  1 0.67673
  Cd  Cd2  1  0.60821499  0.66924428  0.33186626  1 0.676751
  Cd  Cd3  1  0.10188877  0.32858115  0.66781872  1 0.676726
  H  H4  1  0.62601223  0.41863065  0.67253258  1 0.099341
  H  H5  1  0.47317693  0.62688144  0.70415802  1 0.056274
  H  H6  1  0.60860490  0.65551106  0.50974033  1 0.091024
  H  H7  1  0.60203125  0.61180064  0.59902473  1 0.067332
  H  H8  1  0.66375168  0.51662388  0.54925557  1 0.082412
  H  H9  1  0.60695894  0.70353104  0.75486937  1 0.070586
  H  H10  1  0.66599681  0.66882552  0.81557620  1 0.058308
  H  H11  1  0.81466133  0.74700685  0.67521474  1 0.080005
  H  H12  1  0.62381020  0.24713371  0.57719066  1 0.099355
  H  H13  1  0.46896440  0.08294805  0.36423977  1 0.05629
  H  H14  1  0.60496112  0.86090138  0.34966513  1 0.091
  H  H15  1  0.59913415  0.98851477  0.37895095  1 0.067308
  H  H16  1  0.66123219  0.03291213  0.47396905  1 0.082373
  H  H17  1  0.60223291  0.05328805  0.28885571  1 0.070571
  H  H18  1  0.66086638  0.14890154  0.32374466  1 0.058278
  H  H19  1  0.81022788  0.93010113  0.24277312  1 0.080025
  H  H20  1  0.62397395  0.32580407  0.75120249  1 0.099357
  H  H21  1  0.47069206  0.27858549  0.91711749  1 0.056264
  H  H22  1  0.60491793  0.49168803  0.13817963  1 0.091041
  H  H23  1  0.59994424  0.39460880  0.00998031  1 0.067339
  H  H24  1  0.66399448  0.44044065  0.96180065  1 0.082371
  H  H25  1  0.60221269  0.23965486  0.95178437  1 0.07058
  H  H26  1  0.66106325  0.17550718  0.85700456  1 0.058316
  H  H27  1  0.80933860  0.32012927  0.07490852  1 0.08008
  H  H28  1  0.12928670  0.58217891  0.33115416  1 0.099361
  H  H29  1  0.97935567  0.36549507  0.27732330  1 0.056244
  H  H30  1  0.10045197  0.36482908  0.50186166  1 0.091049
  H  H31  1  0.10009425  0.38558745  0.39503365  1 0.06732
  H  H32  1  0.15829099  0.48247533  0.44881680  1 0.082402
  H  H33  1  0.11522702  0.29520410  0.23997749  1 0.070582
  H  H34  1  0.17878306  0.33183971  0.18316972  1 0.058301
  H  H35  1  0.31638176  0.25571139  0.33047891  1 0.079961
  H  H36  1  0.12940799  0.74682986  0.41956328  1 0.099374
  H  H37  1  0.97568604  0.90943078  0.63395410  1 0.05627
  H  H38  1  0.10305857  0.12905105  0.63483809  1 0.091039
  H  H39  1  0.10133528  0.00358227  0.61406308  1 0.067297
  H  H40  1  0.16365872  0.95809713  0.51908918  1 0.082395
  H  H41  1  0.10855901  0.94178703  0.70786010  1 0.070586
  H  H42  1  0.17083653  0.84816130  0.67456547  1 0.058267
  H  H43  1  0.31223803  0.06980073  0.75085858  1 0.079969
  H  H44  1  0.12858277  0.67449445  0.24766868  1 0.099358
  H  H45  1  0.97726082  0.72703769  0.08448739  1 0.056279
  H  H46  1  0.10221092  0.50365986  0.86685953  1 0.091065
  H  H47  1  0.10172485  0.60995330  0.99018595  1 0.067326
  H  H48  1  0.16299064  0.56084811  0.03659948  1 0.08237
  H  H49  1  0.11062538  0.76412736  0.04925966  1 0.070552
  H  H50  1  0.17202201  0.82586122  0.14315235  1 0.058278
  H  H51  1  0.31482570  0.67737754  0.92302733  1 0.080043
  H  H52  1  0.37706621  0.58006588  0.32251999  1 0.099378
  H  H53  1  0.53171876  0.38639495  0.32182485  1 0.056236
  H  H54  1  0.39429629  0.36408974  0.50333343  1 0.09105
  H  H55  1  0.39926429  0.39462531  0.40902854  1 0.06732
  H  H56  1  0.33375275  0.48775897  0.45635498  1 0.082394
  H  H57  1  0.40268019  0.30303371  0.25288313  1 0.070555
  H  H58  1  0.34461438  0.33604963  0.19047710  1 0.058304
  H  H59  1  0.19310656  0.25247154  0.32479870  1 0.079993
  H  H60  1  0.37875230  0.74907616  0.42018020  1 0.099372
  H  H61  1  0.52915722  0.91545585  0.63528075  1 0.056231
  H  H62  1  0.39689214  0.13188615  0.63792413  1 0.091029
  H  H63  1  0.40094286  0.00630826  0.61456506  1 0.067311
  H  H64  1  0.33893539  0.95963797  0.51942925  1 0.082374
  H  H65  1  0.39628181  0.94526446  0.70853851  1 0.070572
  H  H66  1  0.33713088  0.85022639  0.67544125  1 0.0583
  H  H67  1  0.18876046  0.06831248  0.75025842  1 0.079999
  H  H68  1  0.37649856  0.67614029  0.24904127  1 0.099375
  H  H69  1  0.53094459  0.71635954  0.07889627  1 0.056255
  H  H70  1  0.39600511  0.50092423  0.86294623  1 0.090997
  H  H71  1  0.40142020  0.60578425  0.98759870  1 0.067272
  H  H72  1  0.33906430  0.55832258  0.03507067  1 0.082429
  H  H73  1  0.39822928  0.76106641  0.04802109  1 0.070556
  H  H74  1  0.33817283  0.82359554  0.14244152  1 0.058288
  H  H75  1  0.19141925  0.67922521  0.92361558  1 0.079997
  H  H76  1  0.87221440  0.41775096  0.67181929  1 0.099358
  H  H77  1  0.02808359  0.62565514  0.70702045  1 0.056266
  H  H78  1  0.89926813  0.61855975  0.48998310  1 0.091024
  H  H79  1  0.90161063  0.61267804  0.60268822  1 0.067331
  H  H80  1  0.84077245  0.51700029  0.55038077  1 0.082404
  H  H81  1  0.89478851  0.70198775  0.75811589  1 0.070559
  H  H82  1  0.83174283  0.66668320  0.81634685  1 0.058311
  H  H83  1  0.69123508  0.74795707  0.67481284  1 0.080036
  H  H84  1  0.87087844  0.24793583  0.57735363  1 0.099352
  H  H85  1  0.02351089  0.08811420  0.36113047  1 0.056251
  H  H86  1  0.89838567  0.86915464  0.36213228  1 0.09099
  H  H87  1  0.89870636  0.99191274  0.37750262  1 0.067323
  H  H88  1  0.83803082  0.03494886  0.47319171  1 0.082352
  H  H89  1  0.88980959  0.05790071  0.28790645  1 0.070557
  H  H90  1  0.82679241  0.15162414  0.32393143  1 0.058312
  H  H91  1  0.68688393  0.92841360  0.24287804  1 0.080056
  H  H92  1  0.87261391  0.32200116  0.74958980  1 0.099375
  H  H93  1  0.02426559  0.27000885  0.91309997  1 0.05624
  H  H94  1  0.89807529  0.50056684  0.12852800  1 0.090972
  H  H95  1  0.89964072  0.38782540  0.00806565  1 0.067285
  H  H96  1  0.83968842  0.43714111  0.96118298  1 0.082431
  H  H97  1  0.88968192  0.23332647  0.94877996  1 0.070584
  H  H98  1  0.82743490  0.17224975  0.85526785  1 0.058327
  H  H99  1  0.68600329  0.32238755  0.07566528  1 0.080034
  H  H100  1  0.74910895  0.52815880  0.74404532  1 0.090889
  H  H101  1  0.74938145  0.46850871  0.63467519  1 0.099083
  H  H102  1  0.74526885  0.21747591  0.46299665  1 0.090886
  H  H103  1  0.74722297  0.16775075  0.52266819  1 0.099053
  H  H104  1  0.74669926  0.23991695  0.78363597  1 0.090918
  H  H105  1  0.74906375  0.34885557  0.82839076  1 0.099084
  H  H106  1  0.25657253  0.47259903  0.25756721  1 0.090914
  H  H107  1  0.25132618  0.53322822  0.36676402  1 0.099042
  H  H108  1  0.25397448  0.77892358  0.53690471  1 0.090912
  H  H109  1  0.25323277  0.82486247  0.47383575  1 0.099039
  H  H110  1  0.25444349  0.75762839  0.21461758  1 0.09092
  H  H111  1  0.25260842  0.64863207  0.16893399  1 0.099048
  C  C112  1  0.56947220  0.46052727  0.68006618  1 0.043429
  C  C113  1  0.49057941  0.56755345  0.69754973  1 0.049288
  C  C114  1  0.67968500  0.64898467  0.48915931  1 0.090467
  C  C115  1  0.66405953  0.57841853  0.68369751  1 0.228931
  C  C116  1  0.66490392  0.58008436  0.60215521  1 -0.288158
  C  C117  1  0.66728032  0.66850244  0.75662476  1 -0.135109
  C  C118  1  0.56673141  0.21552046  0.53485415  1 0.043451
  C  C119  1  0.48686399  0.13231665  0.42539197  1 0.049255
  C  C120  1  0.67672838  0.84512507  0.35098094  1 0.090524
  C  C121  1  0.66059956  0.10656704  0.41331108  1 0.228898
  C  C122  1  0.66213455  0.02301034  0.41077090  1 -0.288091
  C  C123  1  0.66265669  0.09005441  0.32360527  1 -0.135044
  C  C124  1  0.56707735  0.31595624  0.78358538  1 0.043387
  C  C125  1  0.48798723  0.29047314  0.86771700  1 0.049282
  C  C126  1  0.67650086  0.50988053  0.15374544  1 0.090485
  C  C127  1  0.66156431  0.30595560  0.89375272  1 0.228894
  C  C128  1  0.66347273  0.38928337  0.97502696  1 -0.288138
  C  C129  1  0.66287770  0.23558070  0.91439450  1 -0.135062
  C  C130  1  0.07316005  0.53852546  0.31851154  1 0.043412
  C  C131  1  0.99599634  0.42686074  0.28903142  1 0.049343
  C  C132  1  0.17184760  0.36168094  0.51746120  1 0.090484
  C  C133  1  0.16803506  0.42128417  0.31464179  1 0.228871
  C  C134  1  0.16317305  0.41919672  0.39591257  1 -0.288124
  C  C135  1  0.17584952  0.33160504  0.24179987  1 -0.135043
  C  C136  1  0.07252643  0.77837011  0.46218309  1 0.043434
  C  C137  1  0.99323237  0.86081249  0.57235800  1 0.049287
  C  C138  1  0.17447032  0.14764410  0.63774339  1 0.090535
  C  C139  1  0.16646347  0.88779713  0.58315410  1 0.228839
  C  C140  1  0.16513790  0.97012674  0.58306199  1 -0.288054
  C  C141  1  0.16982863  0.90640060  0.67348902  1 -0.134996
  C  C142  1  0.07214540  0.68593696  0.21598532  1 0.043381
  C  C143  1  0.99406027  0.71427394  0.13339630  1 0.049301
  C  C144  1  0.17342197  0.48673179  0.84816043  1 0.090495
  C  C145  1  0.16703286  0.69520837  0.10565195  1 0.228842
  C  C146  1  0.16526708  0.61235248  0.02393919  1 -0.288077
  C  C147  1  0.17135318  0.76592876  0.08558025  1 -0.135019
  C  C148  1  0.43423950  0.54203756  0.32271888  1 0.043429
  C  C149  1  0.51423894  0.44261775  0.32168716  1 0.049335
  C  C150  1  0.32252940  0.36152509  0.51840425  1 0.090471
  C  C151  1  0.34018874  0.42571688  0.32202267  1 0.228862
  C  C152  1  0.33596822  0.42428514  0.40345694  1 -0.288133
  C  C153  1  0.34138980  0.33585587  0.24911488  1 -0.135009
  C  C154  1  0.43495491  0.78217255  0.46297991  1 0.043409
  C  C155  1  0.51264676  0.86660477  0.57349730  1 0.049299
  C  C156  1  0.32516364  0.14915186  0.63942011  1 0.090539
  C  C157  1  0.33883438  0.88947074  0.58360845  1 0.228854
  C  C158  1  0.33776411  0.97169529  0.58342234  1 -0.288071
  C  C159  1  0.33590756  0.90827920  0.67400536  1 -0.135015
  C  C160  1  0.43356961  0.68449769  0.21575764  1 0.043449
  C  C161  1  0.51326631  0.70625350  0.12938450  1 0.049262
  C  C162  1  0.32412487  0.48550447  0.84616255  1 0.090516
  C  C163  1  0.33952647  0.69281323  0.10435627  1 0.228846
  C  C164  1  0.33825152  0.60991164  0.02250719  1 -0.288074
  C  C165  1  0.33737699  0.76384147  0.08464752  1 -0.135051
  C  C166  1  0.92953565  0.45913212  0.68008049  1 0.043446
  C  C167  1  0.00996460  0.56602619  0.69925883  1 0.049281
  C  C168  1  0.82880652  0.62998710  0.47879601  1 0.090455
  C  C169  1  0.83659592  0.57779320  0.68460984  1 0.228921
  C  C170  1  0.83833177  0.58020982  0.60356178  1 -0.288166
  C  C171  1  0.83310342  0.66744147  0.75794964  1 -0.135076
  C  C172  1  0.92757568  0.21674958  0.53435461  1 0.043425
  C  C173  1  0.00627700  0.13593752  0.42318651  1 0.049268
  C  C174  1  0.82726106  0.84928157  0.35746318  1 0.090528
  C  C175  1  0.83315062  0.10856959  0.41267720  1 0.228913
  C  C176  1  0.83530404  0.02497815  0.40998255  1 -0.288108
  C  C177  1  0.82861676  0.09249858  0.32322108  1 -0.135064
  C  C178  1  0.92901920  0.31069464  0.78138331  1 0.043455
  C  C179  1  0.00723650  0.28269283  0.86418913  1 0.049244
  C  C180  1  0.82685533  0.51454000  0.14860878  1 0.090506
  C  C181  1  0.83415988  0.30273627  0.89246601  1 0.228898
  C  C182  1  0.83642292  0.38583394  0.97411219  1 -0.288135
  C  C183  1  0.82895252  0.23220698  0.91279655  1 -0.135094
  C  C184  1  0.75218978  0.62575991  0.59971957  1 0.226117
  C  C185  1  0.74982871  0.53200761  0.68728973  1 -0.28595
  C  C186  1  0.75238561  0.71368447  0.67628892  1 -0.142151
  C  C187  1  0.74918801  0.97525161  0.36467385  1 0.226112
  C  C188  1  0.74654663  0.15684271  0.45916917  1 -0.285938
  C  C189  1  0.74816957  0.96423807  0.27689018  1 -0.142175
  C  C190  1  0.74981251  0.39285712  0.02443920  1 0.226113
  C  C191  1  0.74784690  0.29851348  0.84265363  1 -0.285973
  C  C192  1  0.74780275  0.31859955  0.03949239  1 -0.142236
  C  C193  1  0.24996477  0.37592354  0.40272012  1 0.226053
  C  C194  1  0.25408322  0.46948977  0.31473239  1 -0.285921
  C  C195  1  0.25462457  0.28796324  0.32637004  1 -0.142096
  C  C196  1  0.25099329  0.02040974  0.62839746  1 0.226032
  C  C197  1  0.25319247  0.83839378  0.53821126  1 -0.285903
  C  C198  1  0.25100703  0.03367546  0.71709120  1 -0.142132
  C  C199  1  0.25149640  0.60605841  0.97348204  1 0.226017
  C  C200  1  0.25341279  0.69937838  0.15526004  1 -0.285908
  C  C201  1  0.25300990  0.68067067  0.95894817  1 -0.142165
  N  N202  1  0.48002476  0.44696994  0.68502570  1 -0.198813
  N  N203  1  0.43012822  0.51414526  0.69606063  1 -0.234661
  N  N204  1  0.57973899  0.53756210  0.68891531  1 -0.047555
  N  N205  1  0.70869714  0.65701938  0.42680769  1 -0.148662
  N  N206  1  0.47742473  0.23368018  0.55024374  1 -0.198808
  N  N207  1  0.42686300  0.18148695  0.48159968  1 -0.234645
  N  N208  1  0.57629036  0.15174280  0.45525736  1 -0.047534
  N  N209  1  0.70613057  0.77535193  0.34423660  1 -0.148675
  N  N210  1  0.47765522  0.31259907  0.76554513  1 -0.198748
  N  N211  1  0.42756418  0.29671376  0.81836612  1 -0.234652
  N  N212  1  0.57725276  0.30068254  0.84766329  1 -0.047542
  N  N213  1  0.70546925  0.57350583  0.22346281  1 -0.148668
  N  N214  1  0.98451683  0.55014646  0.30839911  1 -0.198816
  N  N215  1  0.93561239  0.48011436  0.29000225  1 -0.23463
  N  N216  1  0.08416164  0.45998827  0.30534088  1 -0.047561
  N  N217  1  0.19936157  0.34920230  0.57752983  1 -0.148689
  N  N218  1  0.98307341  0.76087171  0.44695704  1 -0.198806
  N  N219  1  0.93288931  0.81253817  0.51600611  1 -0.234595
  N  N220  1  0.08256109  0.84113426  0.54222245  1 -0.047549
  N  N221  1  0.20208046  0.21931596  0.64781320  1 -0.148669
  N  N222  1  0.98274465  0.69021351  0.23428461  1 -0.198775
  N  N223  1  0.93326225  0.70796200  0.18247237  1 -0.234624
  N  N224  1  0.08299600  0.70240329  0.15274102  1 -0.04756
  N  N225  1  0.20035660  0.42292058  0.77765628  1 -0.148658
  N  N226  1  0.52382672  0.55852383  0.32393485  1 -0.19884
  N  N227  1  0.57449115  0.49624586  0.32341681  1 -0.23466
  N  N228  1  0.42475978  0.46818424  0.32066394  1 -0.047554
  N  N229  1  0.29356274  0.34909774  0.57806139  1 -0.148671
  N  N230  1  0.52485850  0.76718955  0.44799140  1 -0.198816
  N  N231  1  0.57402408  0.82012287  0.51720656  1 -0.234635
  N  N232  1  0.42366095  0.84454665  0.54308377  1 -0.047567
  N  N233  1  0.29637466  0.22024644  0.64888672  1 -0.14868
  N  N234  1  0.52299802  0.68674200  0.23331973  1 -0.198778
  N  N235  1  0.57346205  0.70035155  0.17909714  1 -0.234662
  N  N236  1  0.42380270  0.69785097  0.15037651  1 -0.047554
  N  N237  1  0.29467910  0.42227648  0.77649492  1 -0.148659
  N  N238  1  0.01866295  0.44457354  0.68478666  1 -0.198837
  N  N239  1  0.06963288  0.51154989  0.69667017  1 -0.234691
  N  N240  1  0.92041336  0.53665400  0.69022602  1 -0.047549
  N  N241  1  0.80205727  0.64505223  0.42016921  1 -0.148645
  N  N242  1  0.01701471  0.23443391  0.54933559  1 -0.198818
  N  N243  1  0.06684202  0.18373601  0.47961175  1 -0.234685
  N  N244  1  0.91712173  0.15496330  0.45389868  1 -0.047552
  N  N245  1  0.80027132  0.77783764  0.34837785  1 -0.148685
  N  N246  1  0.01840058  0.30582013  0.76270299  1 -0.198751
  N  N247  1  0.06792394  0.28830717  0.81462673  1 -0.23469
  N  N248  1  0.91823249  0.29481395  0.84507445  1 -0.047537
  N  N249  1  0.79952176  0.57647457  0.22016913  1 -0.148668
  N  N250  1  0.75322875  0.63090814  0.52380733  1 -0.040692
  N  N251  1  0.75101675  0.70997268  0.75244542  1 -0.119303
  N  N252  1  0.75111373  0.89459745  0.36011268  1 -0.040719
  N  N253  1  0.74619177  0.04450755  0.28133995  1 -0.119314
  N  N254  1  0.75110849  0.47068851  0.10363681  1 -0.040702
  N  N255  1  0.74602939  0.24073162  0.96113981  1 -0.119264
  N  N256  1  0.24771077  0.37074404  0.47845268  1 -0.040668
  N  N257  1  0.25866861  0.29166514  0.25024245  1 -0.119279
  N  N258  1  0.25021987  0.10042021  0.63137418  1 -0.040689
  N  N259  1  0.25227179  0.95455744  0.71505243  1 -0.119287
  N  N260  1  0.24970667  0.52821134  0.89426046  1 -0.040683
  N  N261  1  0.25431208  0.75828635  0.03761221  1 -0.119282
  Cl  Cl262  1  0.74804602  0.32959990  0.66729136  1 -0.624404
  Cl  Cl263  1  0.25311332  0.66786739  0.32950455  1 -0.624274
