# generated using pymatgen
data_CuH20(C3N2)6
_symmetry_space_group_name_H-M   'P 1'
_cell_length_a   16.86107500
_cell_length_b   12.88821000
_cell_length_c   13.78468200
_cell_angle_alpha   89.99998753
_cell_angle_beta   90.00120954
_cell_angle_gamma   90.00003112
_symmetry_Int_Tables_number   1
_chemical_formula_structural   CuH20(C3N2)6
_chemical_formula_sum   'Cu4 H80 C72 N48'
_cell_volume   2995.53650046
_cell_formula_units_Z   4
loop_
 _symmetry_equiv_pos_site_id
 _symmetry_equiv_pos_as_xyz
  1  'x, y, z'
loop_
 _atom_site_type_symbol
 _atom_site_label
 _atom_site_symmetry_multiplicity
 _atom_site_fract_x
 _atom_site_fract_y
 _atom_site_fract_z
 _atom_site_occupancy
 _atom_site_charge
  Cu  Cu0  1  0.07497095  0.76020827  0.85802174  1 0.259126
  Cu  Cu1  1  0.42021685  0.24274581  0.35773432  1 0.259015
  Cu  Cu2  1  0.92577589  0.26551736  0.16767950  1 0.259259
  Cu  Cu3  1  0.57004949  0.74200908  0.64132345  1 0.259004
  H  H4  1  0.11967313  0.57542169  0.70236161  1 0.105541
  H  H5  1  0.98557443  0.40403561  0.91088936  1 0.121674
  H  H6  1  0.95489714  0.34639638  0.68820091  1 0.094829
  H  H7  1  0.01734088  0.41835352  0.60869743  1 0.080596
  H  H8  1  0.11815872  0.32186168  0.50338814  1 0.078205
  H  H9  1  0.16734664  0.42854707  0.64220039  1 0.099918
  H  H10  1  0.20542837  0.36916085  0.74919141  1 0.077566
  H  H11  1  0.37247639  0.42885090  0.19917671  1 0.105506
  H  H12  1  0.50713926  0.59966709  0.40705535  1 0.12165
  H  H13  1  0.53984053  0.64889644  0.17883529  1 0.094837
  H  H14  1  0.47255391  0.58198087  0.10147094  1 0.080572
  H  H15  1  0.37468392  0.68533196  0.99883622  1 0.078101
  H  H16  1  0.32553884  0.58071222  0.13767671  1 0.099886
  H  H17  1  0.28945674  0.64022935  0.24568738  1 0.077584
  H  H18  1  0.86478956  0.07618081  0.29799306  1 0.105478
  H  H19  1  0.00541036  0.90928379  0.09269598  1 0.121678
  H  H20  1  0.03377710  0.85564423  0.32011145  1 0.094951
  H  H21  1  0.96677679  0.92398519  0.39710387  1 0.080386
  H  H22  1  0.86885220  0.82470791  0.50019389  1 0.078223
  H  H23  1  0.82076627  0.93085276  0.35960744  1 0.09978
  H  H24  1  0.78344582  0.87035725  0.25248324  1 0.077529
  H  H25  1  0.62747142  0.92769880  0.78369969  1 0.105583
  H  H26  1  0.46337367  0.09515876  0.60821786  1 0.121758
  H  H27  1  0.46028208  0.16148721  0.82840587  1 0.094968
  H  H28  1  0.52739546  0.08590933  0.89888191  1 0.080409
  H  H29  1  0.64196228  0.17781081  0.98968877  1 0.078268
  H  H30  1  0.67046137  0.06789658  0.84727156  1 0.099844
  H  H31  1  0.70168856  0.12157586  0.73389442  1 0.077623
  H  H32  1  0.87868933  0.45151436  0.30181493  1 0.105492
  H  H33  1  0.96229087  0.62606737  0.05920005  1 0.121681
  H  H34  1  0.02859618  0.66021533  0.30951115  1 0.094947
  H  H35  1  0.96094898  0.58919919  0.38359762  1 0.080403
  H  H36  1  0.86547179  0.68620961  0.49509367  1 0.078245
  H  H37  1  0.81081854  0.59819722  0.34478637  1 0.09981
  H  H38  1  0.78021343  0.67226455  0.24247766  1 0.077553
  H  H39  1  0.61477691  0.55595348  0.79216059  1 0.105584
  H  H40  1  0.52853129  0.37519430  0.55499277  1 0.121767
  H  H41  1  0.47460386  0.35352508  0.81645481  1 0.094956
  H  H42  1  0.55127047  0.41857146  0.88174349  1 0.080428
  H  H43  1  0.64875573  0.31563710  0.98293024  1 0.078281
  H  H44  1  0.69536048  0.39884958  0.82391095  1 0.099846
  H  H45  1  0.71633236  0.31987923  0.72116322  1 0.07762
  H  H46  1  0.10267454  0.94468775  0.70293648  1 0.105543
  H  H47  1  0.04306058  0.12730131  0.95048979  1 0.121642
  H  H48  1  0.96297636  0.15367456  0.69764291  1 0.094814
  H  H49  1  0.03046022  0.08422028  0.62173777  1 0.080591
  H  H50  1  0.12238190  0.18351954  0.50743847  1 0.078202
  H  H51  1  0.17948995  0.09536081  0.65615360  1 0.09991
  H  H52  1  0.21291164  0.16902010  0.75719438  1 0.077546
  H  H53  1  0.40300322  0.05988254  0.19799037  1 0.105536
  H  H54  1  0.46345565  0.87559008  0.44433462  1 0.121653
  H  H55  1  0.53886842  0.84113749  0.19046587  1 0.094822
  H  H56  1  0.47403163  0.91658196  0.11626099  1 0.080568
  H  H57  1  0.37508295  0.82399404  0.00393304  1 0.078089
  H  H58  1  0.32336890  0.91388605  0.15409529  1 0.099884
  H  H59  1  0.29007633  0.84176086  0.25630530  1 0.077584
  H  H60  1  0.00511116  0.37171004  0.42285906  1 0.081297
  H  H61  1  0.89407038  0.11334493  0.55685481  1 0.049823
  H  H62  1  0.23691840  0.26084384  0.43282945  1 0.082593
  H  H63  1  0.33166142  0.26422013  0.71852800  1 0.061097
  H  H64  1  0.11782534  0.26909021  0.86074681  1 0.104479
  H  H65  1  0.01372537  0.25885624  0.83866152  1 0.10427
  H  H66  1  0.48510890  0.63496055  0.91138876  1 0.081258
  H  H67  1  0.61254675  0.87035902  0.05909858  1 0.049705
  H  H68  1  0.25636020  0.73075351  0.93390445  1 0.08238
  H  H69  1  0.16847479  0.77047418  0.22001201  1 0.061008
  H  H70  1  0.38248553  0.73682220  0.35639606  1 0.104477
  H  H71  1  0.48645639  0.74027564  0.33328586  1 0.104279
  H  H72  1  0.98172655  0.87737017  0.58042496  1 0.081466
  H  H73  1  0.09539065  0.62028424  0.44900009  1 0.049559
  H  H74  1  0.74958982  0.80279941  0.56383514  1 0.082573
  H  H75  1  0.66034493  0.72791853  0.28412593  1 0.060871
  H  H76  1  0.87640105  0.77090596  0.14138766  1 0.104516
  H  H77  1  0.98012973  0.76436998  0.16748943  1 0.104179
  H  H78  1  0.53846679  0.14760833  0.09506840  1 0.081542
  H  H79  1  0.40370468  0.37367437  0.94385782  1 0.049594
  H  H80  1  0.79045539  0.35816115  0.97440893  1 0.082569
  H  H81  1  0.81344588  0.09054327  0.79703247  1 0.060849
  H  H82  1  0.60800057  0.22756521  0.63275876  1 0.104636
  H  H83  1  0.50712003  0.24281833  0.66808542  1 0.104252
  C  C84  1  0.08392477  0.55336620  0.76458536  1 0.045768
  C  C85  1  0.01454259  0.46653914  0.87139916  1 0.0713
  C  C86  1  0.07750455  0.35803436  0.73620411  1 0.27152
  C  C87  1  0.01458059  0.34928535  0.65576706  1 -0.298869
  C  C88  1  0.16090114  0.36159301  0.69102533  1 -0.303565
  C  C89  1  0.40859349  0.45049694  0.26115243  1 0.045661
  C  C90  1  0.47849097  0.53729785  0.36741104  1 0.071256
  C  C91  1  0.41791533  0.64578874  0.23117496  1 0.271299
  C  C92  1  0.47928199  0.65051722  0.14869745  1 -0.298892
  C  C93  1  0.33404268  0.64663123  0.18744330  1 -0.303339
  C  C94  1  0.90188403  0.05531613  0.23667482  1 0.045776
  C  C95  1  0.97512608  0.97066912  0.13192050  1 0.071011
  C  C96  1  0.91194544  0.86150463  0.26704612  1 0.271737
  C  C97  1  0.97307134  0.85526444  0.34985098  1 -0.298772
  C  C98  1  0.82802887  0.86392792  0.31077898  1 -0.303129
  C  C99  1  0.58184107  0.94804542  0.73173316  1 0.045639
  C  C100  1  0.49643118  0.03291273  0.64258043  1 0.070813
  C  C101  1  0.57687256  0.14243662  0.76319679  1 0.272154
  C  C102  1  0.52265433  0.15492324  0.85180119  1 -0.298824
  C  C103  1  0.66321221  0.13399922  0.79746516  1 -0.303421
  C  C104  1  0.90228991  0.47450856  0.23200864  1 0.045799
  C  C105  1  0.94464454  0.56322784  0.10680287  1 0.070982
  C  C106  1  0.90701974  0.66717458  0.26004669  1 0.27185
  C  C107  1  0.96886683  0.66164366  0.34207585  1 -0.29877
  C  C108  1  0.82294372  0.66907150  0.30285526  1 -0.303269
  C  C109  1  0.59136654  0.53048331  0.72275219  1 0.045651
  C  C110  1  0.54717579  0.43906176  0.60071942  1 0.070821
  C  C111  1  0.59044174  0.33623728  0.75238481  1 0.27206
  C  C112  1  0.53639819  0.34702822  0.84193189  1 -0.298799
  C  C113  1  0.67735062  0.32811692  0.78489479  1 -0.303437
  C  C114  1  0.08629507  0.97069029  0.77507366  1 0.045756
  C  C115  1  0.05728280  0.06323191  0.90280315  1 0.071325
  C  C116  1  0.08508377  0.16360002  0.74414377  1 0.271535
  C  C117  1  0.02192745  0.15629700  0.66346693  1 -0.298864
  C  C118  1  0.16827535  0.16597761  0.69891220  1 -0.303561
  C  C119  1  0.41919522  0.03356812  0.27011548  1 0.045585
  C  C120  1  0.45035877  0.94032784  0.39680102  1 0.071274
  C  C121  1  0.41723967  0.84049816  0.23925198  1 0.271328
  C  C122  1  0.47930222  0.84357660  0.15741639  1 -0.29889
  C  C123  1  0.33328271  0.84266372  0.19637055  1 -0.303338
  C  C124  1  0.96484722  0.30782356  0.43770915  1 0.035648
  C  C125  1  0.90816063  0.17538413  0.50650731  1 0.030837
  C  C126  1  0.27740438  0.26034164  0.49375070  1 0.061587
  C  C127  1  0.32665339  0.26208444  0.63995630  1 0.048893
  C  C128  1  0.02921542  0.25045695  0.59605173  1 0.265625
  C  C129  1  0.11313368  0.25385583  0.55149430  1 -0.284177
  C  C130  1  0.17552349  0.26140903  0.63239049  1 0.265099
  C  C131  1  0.07214821  0.26305930  0.80392142  1 -0.318396
  C  C132  1  0.53077480  0.69050199  0.93112808  1 0.035578
  C  C133  1  0.59599516  0.81141893  0.00678651  1 0.03076
  C  C134  1  0.21698726  0.74007482  0.99531371  1 0.061975
  C  C135  1  0.17131417  0.76123243  0.14180603  1 0.04899
  C  C136  1  0.46762703  0.75062823  0.08963307  1 0.265369
  C  C137  1  0.38302431  0.75276966  0.04705281  1 -0.283553
  C  C138  1  0.32188595  0.74812886  0.12986007  1 0.264619
  C  C139  1  0.42764250  0.74047521  0.29868195  1 -0.318463
  C  C140  1  0.02359624  0.81514234  0.56610250  1 0.035114
  C  C141  1  0.08135311  0.68285668  0.49875108  1 0.031743
  C  C142  1  0.71043693  0.78147927  0.50481180  1 0.061486
  C  C143  1  0.66404118  0.74337538  0.36139971  1 0.049485
  C  C144  1  0.95957578  0.75552666  0.40892466  1 0.266052
  C  C145  1  0.87519245  0.75696939  0.45186057  1 -0.28448
  C  C146  1  0.81398018  0.76379528  0.36949096  1 0.26539
  C  C147  1  0.92051744  0.76622983  0.20019085  1 -0.318706
  C  C148  1  0.49116213  0.20009131  0.07404555  1 0.035113
  C  C149  1  0.42203238  0.31625769  0.99675491  1 0.031219
  C  C150  1  0.81502955  0.29299575  0.93479097  1 0.061762
  C  C151  1  0.82657893  0.15612334  0.84342426  1 0.049412
  C  C152  1  0.54610066  0.25280958  0.90866433  1 0.265709
  C  C153  1  0.63328097  0.24527832  0.94172074  1 -0.284612
  C  C154  1  0.68704621  0.23314523  0.85185446  1 0.265416
  C  C155  1  0.56826068  0.23732503  0.69558863  1 -0.319106
  N  N156  1  0.05233306  0.62000532  0.82714926  1 -0.152254
  N  N157  1  0.00836943  0.56532084  0.89452099  1 -0.199019
  N  N158  1  0.06246929  0.45441173  0.79118329  1 -0.048198
  N  N159  1  0.43979799  0.38396605  0.32415097  1 -0.152267
  N  N160  1  0.48397912  0.43867825  0.39114444  1 -0.199011
  N  N161  1  0.43084864  0.54946911  0.28697615  1 -0.048016
  N  N162  1  0.93410518  0.12284892  0.17450330  1 -0.152246
  N  N163  1  0.98024963  0.06937776  0.10854037  1 -0.198856
  N  N164  1  0.92577998  0.95715266  0.21079269  1 -0.048232
  N  N165  1  0.54260396  0.88048565  0.67691488  1 -0.152046
  N  N166  1  0.48863440  0.93382835  0.62067298  1 -0.198927
  N  N167  1  0.55540410  0.04657428  0.71086060  1 -0.048417
  N  N168  1  0.92245594  0.40847802  0.16112487  1 -0.15224
  N  N169  1  0.94894206  0.46479386  0.08221619  1 -0.19881
  N  N170  1  0.91503431  0.57413018  0.19936446  1 -0.048266
  N  N171  1  0.56837289  0.59496491  0.65307110  1 -0.15205
  N  N172  1  0.54089615  0.53731935  0.57564499  1 -0.198903
  N  N173  1  0.57918730  0.43012294  0.69219194  1 -0.048351
  N  N174  1  0.07187336  0.90694784  0.84835485  1 -0.152289
  N  N175  1  0.05408444  0.96535783  0.92960500  1 -0.199037
  N  N176  1  0.07793739  0.07101808  0.80648498  1 -0.04821
  N  N177  1  0.43438585  0.09699824  0.34364453  1 -0.152334
  N  N178  1  0.45400621  0.03814299  0.42390891  1 -0.199009
  N  N179  1  0.42823150  0.93296850  0.30089545  1 -0.048043
  N  N180  1  0.90393685  0.28043707  0.38277554  1 -0.189714
  N  N181  1  0.86800609  0.19640392  0.42632791  1 -0.269259
  N  N182  1  0.97070568  0.24336970  0.51726332  1 -0.056634
  N  N183  1  0.35587365  0.25670550  0.48690924  1 -0.176799
  N  N184  1  0.38715379  0.25781668  0.57879220  1 -0.200868
  N  N185  1  0.25555804  0.26352896  0.59005199  1 -0.044526
  N  N186  1  0.59701382  0.70769636  0.88213246  1 -0.189418
  N  N187  1  0.63827297  0.78465932  0.92974428  1 -0.269088
  N  N188  1  0.52629749  0.75509641  0.01071619  1 -0.056491
  N  N189  1  0.13851582  0.74524696  0.99061787  1 -0.177052
  N  N190  1  0.10942310  0.75838416  0.08280594  1 -0.200645
  N  N191  1  0.24110144  0.75115269  0.09010899  1 -0.044595
  N  N192  1  0.08563655  0.79078439  0.62025700  1 -0.18907
  N  N193  1  0.12224323  0.70665155  0.57780498  1 -0.270041
  N  N194  1  0.01761023  0.74891258  0.48818454  1 -0.056964
  N  N195  1  0.63233827  0.76952728  0.51181145  1 -0.17656
  N  N196  1  0.60296746  0.74611605  0.42164406  1 -0.201057
  N  N197  1  0.73380986  0.76346798  0.41044364  1 -0.045119
  N  N198  1  0.42481240  0.21576108  0.12354005  1 -0.189206
  N  N199  1  0.38125659  0.28955267  0.07499697  1 -0.269573
  N  N200  1  0.49355913  0.26374000  0.99329561  1 -0.056611
  N  N201  1  0.89101642  0.26776351  0.93213464  1 -0.176879
  N  N202  1  0.89819690  0.18107668  0.87437818  1 -0.20094
  N  N203  1  0.77081651  0.22371025  0.88080764  1 -0.045022
