# generated using pymatgen
data_Y4H18C57(O4F3)6
_symmetry_space_group_name_H-M   'P 1'
_cell_length_a   7.15096107
_cell_length_b   21.46132683
_cell_length_c   22.48441198
_cell_angle_alpha   85.10140267
_cell_angle_beta   76.61838268
_cell_angle_gamma   81.60749702
_symmetry_Int_Tables_number   1
_chemical_formula_structural   Y4H18C57(O4F3)6
_chemical_formula_sum   'Y8 H36 C114 O48 F36'
_cell_volume   3316.25040981
_cell_formula_units_Z   2
loop_
 _symmetry_equiv_pos_site_id
 _symmetry_equiv_pos_as_xyz
  1  'x, y, z'
loop_
 _atom_site_type_symbol
 _atom_site_label
 _atom_site_symmetry_multiplicity
 _atom_site_fract_x
 _atom_site_fract_y
 _atom_site_fract_z
 _atom_site_occupancy
 _atom_site_charge
  Y  Y0  1  0.84769500  0.40009286  0.28159099  1 1.861195
  Y  Y1  1  0.37159356  0.47201446  0.43973590  1 1.809527
  Y  Y2  1  0.56138091  0.24766389  0.10348984  1 1.852991
  Y  Y3  1  0.33625679  0.11567682  0.02165324  1 1.820905
  Y  Y4  1  0.15230500  0.59990714  0.71840901  1 1.861195
  Y  Y5  1  0.62840644  0.52798554  0.56026410  1 1.809527
  Y  Y6  1  0.43861909  0.75233611  0.89651016  1 1.852991
  Y  Y7  1  0.66374321  0.88432318  0.97834676  1 1.820905
  H  H8  1  0.64087382  0.61745173  0.23055838  1 0.121984
  H  H9  1  0.59310550  0.70115391  0.43250497  1 0.111625
  H  H10  1  0.49230786  0.77216070  0.35162455  1 0.114041
  H  H11  1  0.40682969  0.72860457  0.11655201  1 0.106878
  H  H12  1  0.10345730  0.73699020  0.10655194  1 0.103608
  H  H13  1  0.87502914  0.73028373  0.20757755  1 0.102969
  H  H14  1  0.34310887  0.29264101  0.43514398  1 0.126382
  H  H15  1  0.29347392  0.19645344  0.24827584  1 0.098065
  H  H16  1  0.25827468  0.13245261  0.34445890  1 0.112746
  H  H17  1  0.95623054  0.24917623  0.41525090  1 0.113049
  H  H18  1  0.95676894  0.32310849  0.61658579  1 0.111203
  H  H19  1  0.13272769  0.21823007  0.58734335  1 0.112182
  H  H20  1  0.70066777  0.09232819  0.21436031  1 0.113363
  H  H21  1  0.89383270  0.87659755  0.14208632  1 0.104529
  H  H22  1  0.95332080  0.89947431  0.24067615  1 0.108146
  H  H23  1  0.12860622  0.06175904  0.21335357  1 0.124355
  H  H24  1  0.67788893  0.23544122  0.31791746  1 0.098249
  H  H25  1  0.67107312  0.12829636  0.36392561  1 0.101071
  H  H26  1  0.35912618  0.38254827  0.76944162  1 0.121984
  H  H27  1  0.40689450  0.29884609  0.56749503  1 0.111625
  H  H28  1  0.50769214  0.22783930  0.64837545  1 0.114041
  H  H29  1  0.59317031  0.27139543  0.88344799  1 0.106878
  H  H30  1  0.89654270  0.26300980  0.89344806  1 0.103608
  H  H31  1  0.12497086  0.26971627  0.79242245  1 0.102969
  H  H32  1  0.65689113  0.70735899  0.56485602  1 0.126382
  H  H33  1  0.70652608  0.80354656  0.75172416  1 0.098065
  H  H34  1  0.74172532  0.86754739  0.65554110  1 0.112746
  H  H35  1  0.04376946  0.75082377  0.58474910  1 0.113049
  H  H36  1  0.04323106  0.67689151  0.38341421  1 0.111203
  H  H37  1  0.86727231  0.78176993  0.41265665  1 0.112182
  H  H38  1  0.29933223  0.90767181  0.78563969  1 0.113363
  H  H39  1  0.10616730  0.12340245  0.85791368  1 0.104529
  H  H40  1  0.04667920  0.10052569  0.75932385  1 0.108146
  H  H41  1  0.87139378  0.93824096  0.78664643  1 0.124355
  H  H42  1  0.32211107  0.76455878  0.68208254  1 0.098249
  H  H43  1  0.32892688  0.87170364  0.63607439  1 0.101071
  C  C44  1  0.48763830  0.74231919  0.23295018  1 -0.271941
  C  C45  1  0.55742193  0.70021051  0.28443712  1 0.079476
  C  C46  1  0.62509619  0.63634671  0.27516530  1 -0.128079
  C  C47  1  0.66810241  0.59458742  0.32305539  1 -0.025037
  C  C48  1  0.65570421  0.61861355  0.38056494  1 -0.028229
  C  C49  1  0.60075355  0.68310224  0.38816176  1 -0.080889
  C  C50  1  0.54584647  0.72323747  0.34173332  1 -0.118625
  C  C51  1  0.72095022  0.52597906  0.31030625  1 0.611842
  C  C52  1  0.67650892  0.58183488  0.43869856  1 0.617534
  C  C53  1  0.62338929  0.73136320  0.16989052  1 0.089478
  C  C54  1  0.55870091  0.73008050  0.11595385  1 -0.145721
  C  C55  1  0.68666195  0.73407847  0.05904545  1 -0.040777
  C  C56  1  0.88340904  0.73930314  0.05524852  1 -0.061208
  C  C57  1  0.95062650  0.73432682  0.10922454  1 -0.076719
  C  C58  1  0.82233714  0.73075357  0.16581814  1 -0.12376
  C  C59  1  0.60159939  0.73936963  0.00320847  1 0.612742
  C  C60  1  0.00915322  0.76219315  0.99643426  1 0.656177
  C  C61  1  0.27725734  0.73002046  0.23450490  1 0.674631
  C  C62  1  0.47979081  0.81433865  0.24321575  1 0.672988
  C  C63  1  0.22132758  0.17713343  0.46371713  1 -0.275101
  C  C64  1  0.29320781  0.20720890  0.39838358  1 0.082935
  C  C65  1  0.33345235  0.27010498  0.39452078  1 -0.13636
  C  C66  1  0.34628884  0.30693898  0.34004824  1 -0.0521
  C  C67  1  0.32418955  0.28144155  0.28679991  1 -0.07061
  C  C68  1  0.30589976  0.21750845  0.28919309  1 -0.086139
  C  C69  1  0.28745194  0.18077681  0.34435845  1 -0.125077
  C  C70  1  0.38958179  0.37348062  0.33732708  1 0.654999
  C  C71  1  0.29759179  0.32489901  0.23201747  1 0.679358
  C  C72  1  0.06823336  0.22808112  0.49705993  1 0.086014
  C  C73  1  0.95650023  0.26441638  0.46009124  1 -0.137501
  C  C74  1  0.86297144  0.32395531  0.47558294  1 -0.040057
  C  C75  1  0.87018669  0.34608895  0.53206737  1 -0.021518
  C  C76  1  0.95433119  0.30530995  0.57299169  1 -0.065968
  C  C77  1  0.05504208  0.24655449  0.55604664  1 -0.135895
  C  C78  1  0.76777706  0.35970062  0.42815272  1 0.68153
  C  C79  1  0.82565240  0.41405246  0.54488912  1 0.568755
  C  C80  1  0.39495152  0.15986692  0.49533612  1 0.680027
  C  C81  1  0.11896595  0.11748129  0.46495995  1 0.680825
  C  C82  1  0.85443832  0.01580113  0.29861721  1 -0.270728
  C  C83  1  0.82896365  0.99758487  0.23610511  1 0.074652
  C  C84  1  0.74512599  0.04449184  0.19956861  1 -0.111785
  C  C85  1  0.72032895  0.03295979  0.14196075  1 -0.064397
  C  C86  1  0.76838347  0.97124352  0.12163335  1 0.005941
  C  C87  1  0.85384676  0.92441275  0.15770342  1 -0.093477
  C  C88  1  0.88581474  0.93721077  0.21408365  1 -0.103031
  C  C89  1  0.64976711  0.08708515  0.10302361  1 0.661156
  C  C90  1  0.72176410  0.95100124  0.06510329  1 0.585327
  C  C91  1  0.89067989  0.08530506  0.29019777  1 0.081062
  C  C92  1  0.02966410  0.09924710  0.23787074  1 -0.134775
  C  C93  1  0.03060679  0.15976592  0.21051317  1 -0.058531
  C  C94  1  0.89382154  0.20934273  0.23699546  1 -0.053836
  C  C95  1  0.77869912  0.19727057  0.29485765  1 -0.092715
  C  C96  1  0.77471786  0.13575544  0.32122053  1 -0.112
  C  C97  1  0.17947931  0.16632334  0.15298138  1 0.644117
  C  C98  1  0.84768352  0.26979655  0.20097914  1 0.690763
  C  C99  1  0.66384598  0.00476024  0.34549424  1 0.680243
  C  C100  1  0.02840873  0.97549477  0.32025251  1 0.679853
  C  C101  1  0.51236170  0.25768081  0.76704982  1 -0.271941
  C  C102  1  0.44257807  0.29978949  0.71556288  1 0.079476
  C  C103  1  0.37490381  0.36365329  0.72483470  1 -0.128079
  C  C104  1  0.33189759  0.40541258  0.67694461  1 -0.025037
  C  C105  1  0.34429579  0.38138645  0.61943506  1 -0.028229
  C  C106  1  0.39924645  0.31689776  0.61183824  1 -0.080889
  C  C107  1  0.45415353  0.27676253  0.65826668  1 -0.118625
  C  C108  1  0.27904978  0.47402094  0.68969375  1 0.611842
  C  C109  1  0.32349108  0.41816512  0.56130144  1 0.617534
  C  C110  1  0.37661071  0.26863680  0.83010948  1 0.089478
  C  C111  1  0.44129909  0.26991950  0.88404615  1 -0.145721
  C  C112  1  0.31333805  0.26592153  0.94095455  1 -0.040777
  C  C113  1  0.11659096  0.26069686  0.94475148  1 -0.061208
  C  C114  1  0.04937350  0.26567318  0.89077546  1 -0.076719
  C  C115  1  0.17766286  0.26924643  0.83418186  1 -0.12376
  C  C116  1  0.39840061  0.26063037  0.99679153  1 0.612742
  C  C117  1  0.99084678  0.23780685  0.00356574  1 0.656177
  C  C118  1  0.72274266  0.26997954  0.76549510  1 0.674631
  C  C119  1  0.52020919  0.18566135  0.75678425  1 0.672988
  C  C120  1  0.77867242  0.82286657  0.53628287  1 -0.275101
  C  C121  1  0.70679219  0.79279110  0.60161642  1 0.082935
  C  C122  1  0.66654765  0.72989502  0.60547922  1 -0.13636
  C  C123  1  0.65371116  0.69306102  0.65995176  1 -0.0521
  C  C124  1  0.67581045  0.71855845  0.71320009  1 -0.07061
  C  C125  1  0.69410024  0.78249155  0.71080691  1 -0.086139
  C  C126  1  0.71254806  0.81922319  0.65564155  1 -0.125077
  C  C127  1  0.61041821  0.62651938  0.66267292  1 0.654999
  C  C128  1  0.70240821  0.67510099  0.76798253  1 0.679358
  C  C129  1  0.93176664  0.77191888  0.50294007  1 0.086014
  C  C130  1  0.04349977  0.73558362  0.53990876  1 -0.137501
  C  C131  1  0.13702856  0.67604469  0.52441706  1 -0.040057
  C  C132  1  0.12981331  0.65391105  0.46793263  1 -0.021518
  C  C133  1  0.04566881  0.69469005  0.42700831  1 -0.065968
  C  C134  1  0.94495792  0.75344551  0.44395336  1 -0.135895
  C  C135  1  0.23222294  0.64029938  0.57184728  1 0.68153
  C  C136  1  0.17434760  0.58594754  0.45511088  1 0.568755
  C  C137  1  0.60504848  0.84013308  0.50466388  1 0.680027
  C  C138  1  0.88103405  0.88251871  0.53504005  1 0.680825
  C  C139  1  0.14556168  0.98419887  0.70138279  1 -0.270728
  C  C140  1  0.17103635  0.00241513  0.76389489  1 0.074652
  C  C141  1  0.25487401  0.95550816  0.80043139  1 -0.111785
  C  C142  1  0.27967105  0.96704021  0.85803925  1 -0.064397
  C  C143  1  0.23161653  0.02875648  0.87836665  1 0.005941
  C  C144  1  0.14615324  0.07558725  0.84229658  1 -0.093477
  C  C145  1  0.11418526  0.06278923  0.78591635  1 -0.103031
  C  C146  1  0.35023289  0.91291485  0.89697639  1 0.661156
  C  C147  1  0.27823590  0.04899876  0.93489671  1 0.585327
  C  C148  1  0.10932011  0.91469494  0.70980223  1 0.081062
  C  C149  1  0.97033590  0.90075290  0.76212926  1 -0.134775
  C  C150  1  0.96939321  0.84023408  0.78948683  1 -0.058531
  C  C151  1  0.10617846  0.79065727  0.76300454  1 -0.053836
  C  C152  1  0.22130088  0.80272943  0.70514235  1 -0.092715
  C  C153  1  0.22528214  0.86424456  0.67877947  1 -0.112
  C  C154  1  0.82052069  0.83367666  0.84701862  1 0.644117
  C  C155  1  0.15231648  0.73020345  0.79902086  1 0.690763
  C  C156  1  0.33615402  0.99523976  0.65450576  1 0.680243
  C  C157  1  0.97159127  0.02450523  0.67974749  1 0.679853
  O  O158  1  0.83170823  0.50920027  0.25908637  1 -0.595089
  O  O159  1  0.65413727  0.48343424  0.34976722  1 -0.628882
  O  O160  1  0.57392956  0.53666833  0.45690271  1 -0.658549
  O  O161  1  0.77101385  0.59906553  0.47371193  1 -0.536372
  O  O162  1  0.51963968  0.79521476  0.98909609  1 -0.686599
  O  O163  1  0.60184252  0.69357486  0.97220650  1 -0.512904
  O  O164  1  0.92966853  0.81021442  0.96965683  1 -0.621436
  O  O165  1  0.18193549  0.73679850  0.97872362  1 -0.58879
  O  O166  1  0.53493385  0.38707140  0.29588539  1 -0.641195
  O  O167  1  0.28465777  0.41114707  0.37567184  1 -0.590671
  O  O168  1  0.39587822  0.31238353  0.17918204  1 -0.598517
  O  O169  1  0.16935060  0.37313233  0.24374908  1 -0.631538
  O  O170  1  0.86516648  0.35734530  0.37232298  1 -0.643922
  O  O171  1  0.59551859  0.38521268  0.44375022  1 -0.606625
  O  O172  1  0.76614254  0.43195621  0.59990400  1 -0.604644
  O  O173  1  0.84710601  0.45432719  0.49935260  1 -0.578352
  O  O174  1  0.64014156  0.14300729  0.11999040  1 -0.635247
  O  O175  1  0.60370330  0.07441346  0.05424354  1 -0.601677
  O  O176  1  0.55419133  0.93298541  0.07051309  1 -0.610291
  O  O177  1  0.85075817  0.94471541  0.01539740  1 -0.575597
  O  O178  1  0.25354199  0.21734476  0.13982606  1 -0.623809
  O  O179  1  0.23138378  0.11714711  0.12178810  1 -0.616915
  O  O180  1  0.85841715  0.32202577  0.22129960  1 -0.629066
  O  O181  1  0.79157549  0.26394558  0.15242556  1 -0.622807
  O  O182  1  0.16829177  0.49079973  0.74091363  1 -0.595089
  O  O183  1  0.34586273  0.51656576  0.65023278  1 -0.628882
  O  O184  1  0.42607044  0.46333167  0.54309729  1 -0.658549
  O  O185  1  0.22898615  0.40093447  0.52628807  1 -0.536372
  O  O186  1  0.48036032  0.20478524  0.01090391  1 -0.686599
  O  O187  1  0.39815748  0.30642514  0.02779350  1 -0.512904
  O  O188  1  0.07033147  0.18978558  0.03034317  1 -0.621436
  O  O189  1  0.81806451  0.26320150  0.02127638  1 -0.58879
  O  O190  1  0.46506615  0.61292860  0.70411461  1 -0.641195
  O  O191  1  0.71534223  0.58885293  0.62432816  1 -0.590671
  O  O192  1  0.60412178  0.68761647  0.82081796  1 -0.598517
  O  O193  1  0.83064940  0.62686767  0.75625092  1 -0.631538
  O  O194  1  0.13483352  0.64265470  0.62767702  1 -0.643922
  O  O195  1  0.40448141  0.61478732  0.55624978  1 -0.606625
  O  O196  1  0.23385746  0.56804379  0.40009600  1 -0.604644
  O  O197  1  0.15289399  0.54567281  0.50064740  1 -0.578352
  O  O198  1  0.35985844  0.85699271  0.88000960  1 -0.635247
  O  O199  1  0.39629670  0.92558654  0.94575646  1 -0.601677
  O  O200  1  0.44580867  0.06701459  0.92948691  1 -0.610291
  O  O201  1  0.14924183  0.05528459  0.98460260  1 -0.575597
  O  O202  1  0.74645801  0.78265524  0.86017394  1 -0.623809
  O  O203  1  0.76861622  0.88285289  0.87821190  1 -0.616915
  O  O204  1  0.14158285  0.67797423  0.77870040  1 -0.629066
  O  O205  1  0.20842451  0.73605442  0.84757444  1 -0.622807
  F  F206  1  0.16209633  0.73203874  0.29147777  1 -0.189945
  F  F207  1  0.18683357  0.77397514  0.19879995  1 -0.20674
  F  F208  1  0.27558198  0.67242009  0.21385287  1 -0.184987
  F  F209  1  0.33248100  0.83505597  0.29022240  1 -0.207442
  F  F210  1  0.64789965  0.82583320  0.25631872  1 -0.192492
  F  F211  1  0.45616789  0.85103629  0.19275610  1 -0.19437
  F  F212  1  0.47709476  0.21217870  0.50097020  1 -0.19872
  F  F213  1  0.53772237  0.11950664  0.46250965  1 -0.197614
  F  F214  1  0.34514779  0.13229976  0.55241971  1 -0.201225
  F  F215  1  0.02792210  0.10118422  0.52297785  1 -0.204444
  F  F216  1  0.24110218  0.06614871  0.44253025  1 -0.200454
  F  F217  1  0.97974589  0.12935912  0.43149433  1 -0.197464
  F  F218  1  0.61837318  0.94575697  0.34358250  1 -0.204807
  F  F219  1  0.51244452  0.04547047  0.33186663  1 -0.201292
  F  F220  1  0.67198723  0.01295276  0.40394824  1 -0.192254
  F  F221  1  0.99367159  0.91554321  0.33975863  1 -0.200847
  F  F222  1  0.19120475  0.97107137  0.27425549  1 -0.198935
  F  F223  1  0.07187203  0.00182804  0.36728909  1 -0.205379
  F  F224  1  0.83790367  0.26796126  0.70852223  1 -0.189945
  F  F225  1  0.81316643  0.22602486  0.80120005  1 -0.20674
  F  F226  1  0.72441802  0.32757991  0.78614713  1 -0.184987
  F  F227  1  0.66751900  0.16494403  0.70977760  1 -0.207442
  F  F228  1  0.35210035  0.17416680  0.74368128  1 -0.192492
  F  F229  1  0.54383211  0.14896371  0.80724390  1 -0.19437
  F  F230  1  0.52290524  0.78782130  0.49902980  1 -0.19872
  F  F231  1  0.46227763  0.88049336  0.53749035  1 -0.197614
  F  F232  1  0.65485221  0.86770024  0.44758029  1 -0.201225
  F  F233  1  0.97207790  0.89881578  0.47702215  1 -0.204444
  F  F234  1  0.75889782  0.93385129  0.55746975  1 -0.200454
  F  F235  1  0.02025411  0.87064088  0.56850567  1 -0.197464
  F  F236  1  0.38162682  0.05424303  0.65641750  1 -0.204807
  F  F237  1  0.48755548  0.95452953  0.66813337  1 -0.201292
  F  F238  1  0.32801277  0.98704724  0.59605176  1 -0.192254
  F  F239  1  0.00632841  0.08445679  0.66024137  1 -0.200847
  F  F240  1  0.80879525  0.02892863  0.72574451  1 -0.198935
  F  F241  1  0.92812797  0.99817196  0.63271091  1 -0.205379
