# generated using pymatgen
data_Co5H38C48(N3O7)2
_symmetry_space_group_name_H-M   'P 1'
_cell_length_a   10.97376979
_cell_length_b   11.90185232
_cell_length_c   13.24566633
_cell_angle_alpha   68.64208210
_cell_angle_beta   78.98649354
_cell_angle_gamma   69.47091768
_symmetry_Int_Tables_number   1
_chemical_formula_structural   Co5H38C48(N3O7)2
_chemical_formula_sum   'Co5 H38 C48 N6 O14'
_cell_volume   1504.88127921
_cell_formula_units_Z   1
loop_
 _symmetry_equiv_pos_site_id
 _symmetry_equiv_pos_as_xyz
  1  'x, y, z'
loop_
 _atom_site_type_symbol
 _atom_site_label
 _atom_site_symmetry_multiplicity
 _atom_site_fract_x
 _atom_site_fract_y
 _atom_site_fract_z
 _atom_site_occupancy
 _atom_site_charge
  Co  Co0  1  0.03170485  0.40697412  0.81619752  1 0.787668
  Co  Co1  1  0.13785369  0.67522961  0.81052694  1 0.797024
  Co  Co2  1  0.96829256  0.59302011  0.18380775  1 0.78752
  Co  Co3  1  0.86214618  0.32476723  0.18947272  1 0.797168
  Co  Co4  1  -0.00000125  0.50000313  -0.00000089  1 0.842351
  H  H5  1  0.21106276  0.42778468  0.89331717  1 0.382277
  H  H6  1  0.87565676  0.68994138  0.50892580  1 0.109268
  H  H7  1  0.94736286  0.91020367  0.52531628  1 0.092142
  H  H8  1  0.78653066  0.81125199  0.34780966  1 0.102919
  H  H9  1  0.73045222  0.95601822  0.16066300  1 0.11801
  H  H10  1  0.77017900  0.16772808  0.09327379  1 0.088542
  H  H11  1  0.92425948  0.09520869  0.37924924  1 0.077762
  H  H12  1  0.59047306  0.43003319  0.93102806  1 0.118895
  H  H13  1  0.74776933  0.57195820  0.73920424  1 0.116065
  H  H14  1  0.65543522  0.59641584  0.55998393  1 0.105989
  H  H15  1  0.45085195  0.66080053  0.46650812  1 0.109166
  H  H16  1  0.23563770  0.68237826  0.57801590  1 0.078516
  H  H17  1  0.41235778  0.57843169  0.85960283  1 0.089214
  H  H18  1  0.14010387  0.08623118  0.20087808  1 0.127852
  H  H19  1  0.12860009  0.00025177  0.01052035  1 0.095756
  H  H20  1  0.24304581  0.87288195  0.29888647  1 0.109261
  H  H21  1  0.20999835  0.67057352  0.43295945  1 0.101445
  H  H22  1  0.08320225  0.56314311  0.38285354  1 0.087257
  H  H23  1  0.04200670  0.82534170  0.07437198  1 0.08539
  H  H24  1  0.78893657  0.57222113  0.10668389  1 0.382238
  H  H25  1  0.12434088  0.31006257  0.49107379  1 0.109289
  H  H26  1  0.05263824  0.08980181  0.47468003  1 0.092108
  H  H27  1  0.21347071  0.18875104  0.65219057  1 0.102874
  H  H28  1  0.26954693  0.04398383  0.83933547  1 0.118035
  H  H29  1  0.22982115  0.83227369  0.90672451  1 0.088491
  H  H30  1  0.07574149  0.90479154  0.62075180  1 0.077766
  H  H31  1  0.40952758  0.56996498  0.06897399  1 0.118962
  H  H32  1  0.25223321  0.42804259  0.26079231  1 0.116097
  H  H33  1  0.34456308  0.40358475  0.44001789  1 0.105996
  H  H34  1  0.54914828  0.33919926  0.53349233  1 0.109165
  H  H35  1  0.76436179  0.31762201  0.42198201  1 0.078521
  H  H36  1  0.58764046  0.42156899  0.14039678  1 0.089207
  H  H37  1  0.85989543  0.91376828  0.79911988  1 0.127893
  H  H38  1  0.87139780  -0.00025214  0.98947889  1 0.095744
  H  H39  1  0.75695325  0.12711554  0.70111650  1 0.109263
  H  H40  1  0.78999784  0.32942178  0.56704109  1 0.101423
  H  H41  1  0.91679477  0.43685430  0.61714101  1 0.087294
  H  H42  1  0.95799306  0.17465894  0.92562636  1 0.085361
  C  C43  1  0.98118263  0.66757371  0.64243855  1 0.614177
  C  C44  1  0.91320797  0.74252305  0.54145688  1 -0.247812
  C  C45  1  0.90646942  0.86497084  0.48746856  1 -0.096126
  C  C46  1  0.85990386  0.94161620  0.38075891  1 0.06256
  C  C47  1  0.80318983  0.90339648  0.31708956  1 -0.084315
  C  C48  1  0.77145179  0.98429816  0.21288286  1 -0.128264
  C  C49  1  0.79523007  0.10115851  0.17386615  1 0.069088
  C  C50  1  0.87987059  0.06092453  0.33421489  1 0.029193
  C  C51  1  0.77599242  0.44033472  0.95316894  1 0.594611
  C  C52  1  0.66902452  0.46944038  0.88760550  1 -0.25682
  C  C53  1  0.66392544  0.54001202  0.78102781  1 -0.076994
  C  C54  1  0.55187573  0.57690644  0.71924100  1 0.06435
  C  C55  1  0.56070129  0.60450432  0.60580940  1 -0.103645
  C  C56  1  0.44715716  0.64057212  0.55400724  1 -0.13742
  C  C57  1  0.32748439  0.65165995  0.61476727  1 0.059268
  C  C58  1  0.42673473  0.59120485  0.77303738  1 0.038836
  C  C59  1  0.10732910  0.21979664  0.03801416  1 0.607278
  C  C60  1  0.13842264  0.09075924  0.11737185  1 -0.233455
  C  C61  1  0.14141070  0.98854892  0.09406080  1 -0.091674
  C  C62  1  0.14228905  0.86673908  0.17555014  1 0.068976
  C  C63  1  0.19165543  0.82136495  0.27849558  1 -0.102951
  C  C64  1  0.17287575  0.71009069  0.35274681  1 -0.124844
  C  C65  1  0.10331816  0.64839538  0.32589984  1 0.067924
  C  C66  1  0.08008550  0.79455316  0.15339408  1 0.030938
  C  C67  1  0.01881910  0.33242512  0.35756358  1 0.614183
  C  C68  1  0.08679141  0.25747670  0.45854497  1 -0.247877
  C  C69  1  0.09353100  0.13502795  0.51253462  1 -0.096132
  C  C70  1  0.14009645  0.05838411  0.61924300  1 0.062622
  C  C71  1  0.19681136  0.09660671  0.68290997  1 -0.08425
  C  C72  1  0.22854785  0.01570445  0.78711576  1 -0.128272
  C  C73  1  0.20476919  0.89884353  0.82613232  1 0.069101
  C  C74  1  0.12012901  0.93907620  0.66578522  1 0.029121
  C  C75  1  0.22400625  0.55966529  0.04683336  1 0.594535
  C  C76  1  0.33097764  0.53056016  0.11239590  1 -0.256916
  C  C77  1  0.33607634  0.45998779  0.21897264  1 -0.076956
  C  C78  1  0.44812591  0.42309178  0.28076114  1 0.064316
  C  C79  1  0.43929864  0.39549469  0.39419281  1 -0.103612
  C  C80  1  0.55284418  0.35942862  0.44599342  1 -0.137434
  C  C81  1  0.67251506  0.34834175  0.38523140  1 0.059301
  C  C82  1  0.57326515  0.40879617  0.22696271  1 0.038885
  C  C83  1  0.89267325  0.78020202  0.96198566  1 0.607278
  C  C84  1  0.86158042  0.90923873  0.88262595  1 -0.233537
  C  C85  1  0.85858984  0.01144898  0.90593836  1 -0.091602
  C  C86  1  0.85771144  0.13325884  0.82444993  1 0.068898
  C  C87  1  0.80834401  0.17863453  0.72150443  1 -0.102942
  C  C88  1  0.82712269  0.28990779  0.64725221  1 -0.124822
  C  C89  1  0.89667958  0.35160258  0.67409829  1 0.067904
  C  C90  1  0.91991273  0.20544606  0.84660549  1 0.031049
  N  N91  1  0.84913236  0.13999319  0.23383963  1 -0.242833
  N  N92  1  0.31681727  0.62846506  0.72338242  1 -0.232602
  N  N93  1  0.05681688  0.68945899  0.22682105  1 -0.258915
  N  N94  1  0.15086749  0.86000865  0.76615981  1 -0.242741
  N  N95  1  0.68318420  0.37153665  0.27661650  1 -0.232652
  N  N96  1  0.94317957  0.31053968  0.77317708  1 -0.258994
  O  O97  1  0.02919862  0.72304385  0.68383839  1 -0.55152
  O  O98  1  0.98994902  0.54917338  0.67730937  1 -0.573768
  O  O99  1  0.76832982  0.37070434  0.05228813  1 -0.551105
  O  O100  1  0.87007003  0.48877146  0.90931732  1 -0.535033
  O  O101  1  0.12852239  0.23740661  0.93586379  1 -0.56692
  O  O102  1  0.05261514  0.30865386  0.08065246  1 -0.522957
  O  O103  1  0.12803163  0.48958000  0.86831050  1 -0.788866
  O  O104  1  0.97079984  0.27696144  0.31615879  1 -0.551525
  O  O105  1  0.01005947  0.45082668  0.32269388  1 -0.573734
  O  O106  1  0.23166566  0.62929867  0.94771709  1 -0.551056
  O  O107  1  0.12993276  0.51122392  0.09068428  1 -0.534971
  O  O108  1  0.87148249  0.76259561  0.06413540  1 -0.566899
  O  O109  1  0.94738456  0.69134046  0.91935323  1 -0.522987
  O  O110  1  0.87196974  0.51041583  0.13168258  1 -0.788828
