# generated using pymatgen
data_CuSiH10W12C12(N2O15)2
_symmetry_space_group_name_H-M   'P 1'
_cell_length_a   9.80954100
_cell_length_b   13.02071454
_cell_length_c   19.27659337
_cell_angle_alpha   86.67121730
_cell_angle_beta   89.99474200
_cell_angle_gamma   112.12635756
_symmetry_Int_Tables_number   1
_chemical_formula_structural   CuSiH10W12C12(N2O15)2
_chemical_formula_sum   'Cu2 Si2 H20 W24 C24 N8 O60'
_cell_volume   2276.33189192
_cell_formula_units_Z   2
loop_
 _symmetry_equiv_pos_site_id
 _symmetry_equiv_pos_as_xyz
  1  'x, y, z'
loop_
 _atom_site_type_symbol
 _atom_site_label
 _atom_site_symmetry_multiplicity
 _atom_site_fract_x
 _atom_site_fract_y
 _atom_site_fract_z
 _atom_site_occupancy
 _atom_site_charge
  Cu  Cu0  1  0.99119700  0.00753094  0.00219708  1 0.073525
  Cu  Cu1  1  0.00415670  0.99871507  0.49897737  1 0.072979
  Si  Si2  1  0.41049982  0.99625223  0.25312970  1 1.670091
  Si  Si3  1  0.58393047  0.99854413  0.74977113  1 1.670154
  H  H4  1  0.40350847  0.35324818  0.59369783  1 0.116131
  H  H5  1  0.27826394  0.19810557  0.53758386  1 0.113841
  H  H6  1  0.96429308  0.36766612  0.10218087  1 0.116594
  H  H7  1  0.92148980  0.20718286  0.04391684  1 0.113745
  H  H8  1  0.35057143  0.49992237  0.39339519  1 0.124442
  H  H9  1  0.69115645  0.60198652  0.07997166  1 0.125417
  H  H10  1  0.89445014  0.18695151  0.43362692  1 0.123342
  H  H11  1  0.09342561  0.40527310  0.42869526  1 0.125387
  H  H12  1  0.90794033  0.58700980  0.56364655  1 0.125512
  H  H13  1  0.06905393  0.81090656  0.96198892  1 0.113704
  H  H14  1  0.70262965  0.81890984  0.07335369  1 0.1248
  H  H15  1  0.03600378  0.65241694  0.90732995  1 0.116595
  H  H16  1  0.11215260  0.80387001  0.55956734  1 0.12343
  H  H17  1  0.72798288  0.80057879  0.45988382  1 0.113824
  H  H18  1  0.30162853  0.41428949  0.92703549  1 0.125399
  H  H19  1  0.59773181  0.64625773  0.40171001  1 0.116047
  H  H20  1  0.13354324  0.50502490  0.89592947  1 0.123585
  H  H21  1  0.86699739  0.51610581  0.11373279  1 0.123617
  H  H22  1  0.28119741  0.19535981  0.92922214  1 0.124894
  H  H23  1  0.65075389  0.49898554  0.60188641  1 0.124458
  W  W24  1  0.66143784  0.03689729  0.11588859  1 2.385163
  W  W25  1  0.22987342  0.78892184  0.75898151  1 1.593779
  W  W26  1  0.30342082  0.78625931  0.38528445  1 1.509541
  W  W27  1  0.17288247  0.01778597  0.38837788  1 1.721685
  W  W28  1  0.66768214  0.96710740  0.37784278  1 2.383665
  W  W29  1  0.32334676  0.98349459  0.87925769  1 2.385308
  W  W30  1  0.13364331  0.00029093  0.11266279  1 1.719543
  W  W31  1  0.74025339  0.81558151  0.75164253  1 1.846316
  W  W32  1  0.75344541  0.20660890  0.25593683  1 1.59407
  W  W33  1  0.48489043  0.20624567  0.13793613  1 1.510113
  W  W34  1  0.84710772  0.99596719  0.60847018  1 1.721011
  W  W35  1  0.44094312  0.21020634  0.73935822  1 1.593145
  W  W36  1  0.84557330  0.00272715  0.89117361  1 1.719998
  W  W37  1  0.53619457  0.79791483  0.24824070  1 1.594329
  W  W38  1  0.69783522  0.20979958  0.87323576  1 1.629532
  W  W39  1  0.28052488  0.20458747  0.23750323  1 1.845209
  W  W40  1  0.55254045  0.20120143  0.35609700  1 1.628343
  W  W41  1  0.29315473  0.79824141  0.11940499  1 1.628073
  W  W42  1  0.47339515  0.78854041  0.88656289  1 1.510859
  W  W43  1  0.92366889  0.18192140  0.74836177  1 1.84566
  W  W44  1  0.68761149  0.20954092  0.61233621  1 1.51016
  W  W45  1  0.06386487  0.81604838  0.25396840  1 1.846161
  W  W46  1  0.49098415  0.78949228  0.62633174  1 1.627316
  W  W47  1  0.34344989  0.01599243  0.61964840  1 2.383393
  C  C48  1  0.77615086  0.78447057  0.05119564  1 -0.014246
  C  C49  1  0.58639890  0.49812670  0.55574722  1 -0.158936
  C  C50  1  0.19821699  0.22367677  0.51105214  1 0.125876
  C  C51  1  0.05465450  0.42747783  0.99845352  1 0.150374
  C  C52  1  0.02356247  0.23252925  0.01437810  1 0.125575
  C  C53  1  0.80775721  0.77380199  0.48535075  1 0.125707
  C  C54  1  0.10113999  0.32982513  0.45162179  1 -0.105212
  C  C55  1  0.02050251  0.59023073  0.95005161  1 -0.161108
  C  C56  1  0.55498070  0.58221206  0.44383214  1 -0.158267
  C  C57  1  0.92197411  0.51185750  0.06552450  1 -0.155422
  C  C58  1  0.44645320  0.41688206  0.55146312  1 -0.158489
  C  C59  1  0.22096688  0.33866241  0.95120304  1 -0.106471
  C  C60  1  0.64018175  0.58030288  0.50175579  1 0.152835
  C  C61  1  0.77034673  0.67766330  0.05514469  1 -0.106645
  C  C62  1  0.97827333  0.42945435  0.05935426  1 -0.161042
  C  C63  1  0.94247476  0.59145711  0.01049053  1 0.150333
  C  C64  1  0.21047560  0.23076328  0.95284416  1 -0.01425
  C  C65  1  0.96621935  0.78433262  0.99111759  1 0.125531
  C  C66  1  0.41501400  0.50064811  0.43951220  1 -0.15896
  C  C67  1  0.36160805  0.41807018  0.49336954  1 0.152815
  C  C68  1  0.00242674  0.77106308  0.53938854  1 -0.011963
  C  C69  1  0.90233595  0.66383458  0.54194834  1 -0.105493
  C  C70  1  0.00350579  0.22196621  0.45442803  1 -0.012025
  C  C71  1  0.07695082  0.50803511  0.94391200  1 -0.155151
  N  N72  1  0.08573565  0.16546152  0.99185291  1 -0.227113
  N  N73  1  0.77961873  0.66690517  0.50731598  1 0.024779
  N  N74  1  0.89115687  0.67876554  0.01690037  1 0.027808
  N  N75  1  0.94092531  0.83900691  0.50457064  1 -0.228293
  N  N76  1  0.22375005  0.32979206  0.48779705  1 0.024654
  N  N77  1  0.06678044  0.15673686  0.49094502  1 -0.228268
  N  N78  1  0.90025033  0.85011423  0.01184360  1 -0.226902
  N  N79  1  0.10227599  0.33865536  0.99052140  1 0.027734
  O  O80  1  0.38934131  0.07168639  0.31133733  1 -0.906347
  O  O81  1  0.50579723  0.06859318  0.18682547  1 -0.973617
  O  O82  1  0.74352606  0.29667539  0.33636767  1 -0.783807
  O  O83  1  0.40273701  0.71893030  0.32319218  1 -0.726519
  O  O84  1  0.15496649  0.12114907  0.31975327  1 -0.765248
  O  O85  1  0.50631678  0.13002248  0.56785546  1 -0.799849
  O  O86  1  0.32982690  0.09536269  0.80536600  1 -0.792578
  O  O87  1  0.77734824  0.10854708  0.58120122  1 -0.723087
  O  O88  1  0.23639543  0.90396689  0.69270664  1 -0.792379
  O  O89  1  0.00239360  0.88947418  0.17596040  1 -0.765392
  O  O90  1  0.59255122  0.08595916  0.40277284  1 -0.794282
  O  O91  1  0.49421681  0.92342910  0.29245905  1 -0.973718
  O  O92  1  0.63727563  0.91123833  0.71175521  1 -0.906859
  O  O93  1  0.30937804  0.12921315  0.66755727  1 -0.814229
  O  O94  1  0.25729022  0.92022862  0.22086460  1 -0.907412
  O  O95  1  0.85341536  0.89500220  0.82364627  1 -0.759696
  O  O96  1  0.77602183  0.08933063  0.31040062  1 -0.792206
  O  O97  1  0.67981924  0.88398512  0.57856582  1 -0.7093
  O  O98  1  0.61218315  0.15134413  0.07353292  1 -0.800781
  O  O99  1  0.13116584  0.73220268  0.17857645  1 -0.773596
  O  O100  1  0.42293644  0.90344621  0.59729962  1 -0.794011
  O  O101  1  0.78288882  0.01853733  0.05644260  1 -0.692942
  O  O102  1  0.69198463  0.85733816  0.32723085  1 -0.814591
  O  O103  1  0.20738034  0.00599694  0.93956931  1 -0.693129
  O  O104  1  0.79679227  0.13794472  0.17463452  1 -0.814947
  O  O105  1  0.04146681  0.90223696  0.32256817  1 -0.759852
  O  O106  1  0.87494852  0.88941746  0.67401877  1 -0.765345
  O  O107  1  0.32032625  0.10814406  0.08818490  1 -0.720796
  O  O108  1  0.22803762  0.89371846  0.41440297  1 -0.722847
  O  O109  1  0.13885458  0.10946229  0.17887954  1 -0.75955
  O  O110  1  0.20678057  0.99285118  0.55859881  1 -0.692737
  O  O111  1  0.72594245  0.08380867  0.78801342  1 -0.907397
  O  O112  1  0.83598815  0.25061774  0.67887016  1 -0.782414
  O  O113  1  0.14774549  0.74311876  0.32138949  1 -0.782422
  O  O114  1  0.32403089  0.73720898  0.69009967  1 -0.783556
  O  O115  1  0.58052562  0.27995704  0.66671760  1 -0.726565
  O  O116  1  0.51447057  0.09569551  0.90156798  1 -0.794652
  O  O117  1  0.45748961  0.93110243  0.80663219  1 -0.973203
  O  O118  1  0.47480415  0.91398191  0.09270103  1 -0.794454
  O  O119  1  0.58454732  0.26219604  0.80879880  1 -0.78368
  O  O120  1  0.44130367  0.27016263  0.30131156  1 -0.773462
  O  O121  1  0.98375471  0.10903488  0.82691684  1 -0.7653
  O  O122  1  0.78958775  0.11492342  0.92049838  1 -0.708954
  O  O123  1  0.49112290  0.86132923  0.42524692  1 -0.800196
  O  O124  1  0.86882897  0.27417677  0.81951469  1 -0.774123
  O  O125  1  0.65390176  0.91414447  0.18712256  1 -0.792789
  O  O126  1  0.66271641  0.89030224  0.91796906  1 -0.721051
  O  O127  1  0.41401686  0.72838815  0.17674139  1 -0.783518
  O  O128  1  0.19610413  0.89179098  0.08017696  1 -0.70871
  O  O129  1  0.39384966  0.30325311  0.15527628  1 -0.78258
  O  O130  1  0.59614495  0.72338329  0.67988810  1 -0.773146
  O  O131  1  0.37013755  0.86837378  0.93103766  1 -0.800895
  O  O132  1  0.29674310  0.71805056  0.83212159  1 -0.72758
  O  O133  1  0.58220781  0.74732742  0.82089200  1 -0.783088
  O  O134  1  0.32549435  0.11878992  0.42767601  1 -0.709343
  O  O135  1  0.65760510  0.27449992  0.19350524  1 -0.727521
  O  O136  1  0.17780497  0.86994393  0.83010981  1 -0.815163
  O  O137  1  0.96033965  0.10308531  0.67673628  1 -0.759476
  O  O138  1  0.79931396  0.98755457  0.44132356  1 -0.69278
  O  O139  1  0.52821990  0.06784492  0.69276423  1 -0.973976
