# generated using pymatgen
data_ZnH2(C5O4)2
_symmetry_space_group_name_H-M   'P 1'
_cell_length_a   16.15096985
_cell_length_b   16.15160292
_cell_length_c   30.23484503
_cell_angle_alpha   90.00008450
_cell_angle_beta   89.99969921
_cell_angle_gamma   90.00012932
_symmetry_Int_Tables_number   1
_chemical_formula_structural   ZnH2(C5O4)2
_chemical_formula_sum   'Zn16 H32 C160 O128'
_cell_volume   7887.18417849
_cell_formula_units_Z   16
loop_
 _symmetry_equiv_pos_site_id
 _symmetry_equiv_pos_as_xyz
  1  'x, y, z'
loop_
 _atom_site_type_symbol
 _atom_site_label
 _atom_site_symmetry_multiplicity
 _atom_site_fract_x
 _atom_site_fract_y
 _atom_site_fract_z
 _atom_site_occupancy
 _atom_site_charge
  Zn  Zn0  1  0.22012593  0.47015797  0.12500856  1 0.967686
  Zn  Zn1  1  0.72014852  0.97012984  0.62500021  1 0.967687
  Zn  Zn2  1  0.27981960  0.52987492  0.62499310  1 0.967558
  Zn  Zn3  1  0.77986341  0.97013298  0.37500037  1 0.967736
  Zn  Zn4  1  0.72014466  0.02985615  0.87499359  1 0.96756
  Zn  Zn5  1  0.27983900  0.47016067  0.87498800  1 0.967563
  Zn  Zn6  1  0.22013092  0.52988649  0.37500893  1 0.967648
  Zn  Zn7  1  0.77987456  0.02985856  0.12501074  1 0.967673
  Zn  Zn8  1  0.77985331  0.52984741  0.87499425  1 0.967627
  Zn  Zn9  1  0.27983275  0.02984412  0.37500629  1 0.967664
  Zn  Zn10  1  0.72015016  0.47013282  0.37500440  1 0.967681
  Zn  Zn11  1  0.22015098  0.97014840  0.87498468  1 0.967664
  Zn  Zn12  1  0.22018029  0.02984160  0.62499075  1 0.967689
  Zn  Zn13  1  0.27985423  0.97015182  0.12500879  1 0.967683
  Zn  Zn14  1  0.72016122  0.52983123  0.12500631  1 0.967713
  Zn  Zn15  1  0.77985803  0.47013370  0.62500231  1 0.967732
  H  H16  1  0.24999542  0.37473900  0.99999394  1 0.13717
  H  H17  1  0.24999403  0.06760296  0.99999164  1 0.139282
  H  H18  1  0.75000139  0.87475405  0.50000496  1 0.137159
  H  H19  1  0.74999572  0.56759870  0.50000616  1 0.139254
  H  H20  1  0.25001178  0.62524642  0.49999939  1 0.137136
  H  H21  1  0.24999492  0.93240024  0.49999819  1 0.139229
  H  H22  1  0.75001076  0.12525241  0.99999018  1 0.137176
  H  H23  1  0.75000233  0.43238744  0.99998749  1 0.139318
  H  H24  1  0.87524705  0.99998921  0.25000300  1 0.137198
  H  H25  1  0.18240962  0.99999559  0.25000240  1 0.139152
  H  H26  1  0.37525141  0.50000279  0.74999430  1 0.137187
  H  H27  1  0.68240110  0.49999581  0.74999345  1 0.139244
  H  H28  1  0.62474624  0.00000692  0.74999795  1 0.137195
  H  H29  1  0.31760045  0.00000067  0.74999744  1 0.139179
  H  H30  1  0.12475761  0.50000904  0.25000409  1 0.13717
  H  H31  1  0.81759633  0.50000431  0.25000321  1 0.139145
  H  H32  1  0.75001464  0.62525438  0.99999911  1 0.137261
  H  H33  1  0.74999664  0.93239619  0.00000188  1 0.139231
  H  H34  1  0.24999701  0.12523905  0.49999940  1 0.137033
  H  H35  1  0.25000959  0.43240106  0.49999876  1 0.139299
  H  H36  1  0.74999464  0.37475501  0.50000391  1 0.13717
  H  H37  1  0.75000141  0.06759438  0.50000595  1 0.139245
  H  H38  1  0.24999496  0.87474853  0.99999966  1 0.137232
  H  H39  1  0.24999545  0.56760986  0.99999736  1 0.139224
  H  H40  1  0.12475436  0.00000716  0.74999943  1 0.137151
  H  H41  1  0.81759780  0.00000441  0.75000012  1 0.139191
  H  H42  1  0.62474964  0.50001228  0.25000798  1 0.137189
  H  H43  1  0.31758439  0.50000076  0.25001136  1 0.139177
  H  H44  1  0.37524302  0.99999856  0.25000590  1 0.137116
  H  H45  1  0.68240826  0.99998811  0.25000515  1 0.139157
  H  H46  1  0.87524275  0.49999217  0.74999751  1 0.137149
  H  H47  1  0.18239732  0.50000412  0.74999851  1 0.139193
  C  C48  1  0.25919558  0.26447965  0.03996485  1 0.003444
  C  C49  1  0.25912089  0.17723606  0.03996655  1 -0.010164
  C  C50  1  0.26944875  0.31670492  0.08043611  1 0.555449
  C  C51  1  0.26239886  0.12645321  0.08147727  1 0.559832
  C  C52  1  0.75920807  0.76448239  0.53997305  1 0.007575
  C  C53  1  0.75913468  0.67725034  0.53997569  1 -0.011545
  C  C54  1  0.76946126  0.81671094  0.58043951  1 0.554277
  C  C55  1  0.76241435  0.62646109  0.58148701  1 0.559959
  C  C56  1  0.24079847  0.73552355  0.53996726  1 0.006625
  C  C57  1  0.24086645  0.82275303  0.53996960  1 -0.011198
  C  C58  1  0.23054783  0.68329703  0.58042968  1 0.554801
  C  C59  1  0.23758560  0.87354180  0.58147372  1 0.559864
  C  C60  1  0.74080648  0.23551924  0.03996117  1 0.003645
  C  C61  1  0.74087679  0.32275933  0.03996653  1 -0.010522
  C  C62  1  0.73055872  0.18329591  0.08042764  1 0.55526
  C  C63  1  0.73759369  0.37353762  0.08147075  1 0.559682
  C  C64  1  0.98552000  0.00919923  0.28996832  1 0.006834
  C  C65  1  0.07275815  0.00912716  0.28997145  1 -0.011396
  C  C66  1  0.93329176  0.01944579  0.33043547  1 0.554544
  C  C67  1  0.12353554  0.01240787  0.33147930  1 0.559621
  C  C68  1  0.48551932  0.50920727  0.78996751  1 0.006784
  C  C69  1  0.57276028  0.50913548  0.78997169  1 -0.011256
  C  C70  1  0.43328782  0.51944902  0.83043154  1 0.554589
  C  C71  1  0.62353801  0.51241180  0.83147475  1 0.559657
  C  C72  1  0.51447689  0.99079640  0.78996982  1 0.00676
  C  C73  1  0.42723485  0.99086716  0.78997365  1 -0.01149
  C  C74  1  0.56670604  0.98055236  0.83043547  1 0.554702
  C  C75  1  0.37645774  0.98758859  0.83147620  1 0.559899
  C  C76  1  0.01447547  0.49079873  0.28996624  1 0.007806
  C  C77  1  0.92724120  0.49087032  0.28997167  1 -0.011695
  C  C78  1  0.06670967  0.48055923  0.33043372  1 0.554173
  C  C79  1  0.87645975  0.48758692  0.33148355  1 0.55978
  C  C80  1  0.24078238  0.26447642  0.96002427  1 0.006665
  C  C81  1  0.24085818  0.17723651  0.96001945  1 -0.011125
  C  C82  1  0.23053065  0.31669842  0.91955567  1 0.554521
  C  C83  1  0.23757854  0.12645698  0.91851206  1 0.559813
  C  C84  1  0.74079324  0.76448008  0.46003526  1 0.006617
  C  C85  1  0.74086334  0.67724803  0.46003032  1 -0.011084
  C  C86  1  0.73054097  0.81671261  0.41956650  1 0.554816
  C  C87  1  0.73758423  0.62646007  0.41851734  1 0.559857
  C  C88  1  0.25921286  0.73552461  0.46003220  1 0.007621
  C  C89  1  0.25913614  0.82275417  0.46002472  1 -0.011502
  C  C90  1  0.26946171  0.68329820  0.41956471  1 0.554392
  C  C91  1  0.26240789  0.87354021  0.41851537  1 0.559712
  C  C92  1  0.75922372  0.23551476  0.96002193  1 0.007599
  C  C93  1  0.75914568  0.32275340  0.96001922  1 -0.01154
  C  C94  1  0.76948192  0.18329456  0.91955071  1 0.553887
  C  C95  1  0.76242649  0.37353014  0.91851130  1 0.55962
  C  C96  1  0.51448010  0.00921780  0.71002995  1 0.006681
  C  C97  1  0.42723658  0.00914443  0.71002662  1 -0.011373
  C  C98  1  0.56670530  0.01945723  0.66956420  1 0.55474
  C  C99  1  0.37646437  0.01242173  0.66851974  1 0.559695
  C  C100  1  0.01447945  0.50922592  0.21003071  1 0.00779
  C  C101  1  0.92724606  0.50915468  0.21002746  1 -0.011842
  C  C102  1  0.06671089  0.51946970  0.16956823  1 0.554034
  C  C103  1  0.87646750  0.51243317  0.16852435  1 0.559796
  C  C104  1  0.98552353  0.99077509  0.21003337  1 0.007808
  C  C105  1  0.07275935  0.99084907  0.21002828  1 -0.011677
  C  C106  1  0.93329736  0.98053033  0.16956887  1 0.553897
  C  C107  1  0.12353411  0.98757133  0.16852179  1 0.559651
  C  C108  1  0.48551849  0.49079376  0.71002813  1 0.007682
  C  C109  1  0.57276132  0.49086234  0.71002526  1 -0.011823
  C  C110  1  0.43328893  0.48055312  0.66955787  1 0.554091
  C  C111  1  0.62353546  0.48758132  0.66851445  1 0.559971
  C  C112  1  0.74080820  0.73552165  0.96003242  1 0.003563
  C  C113  1  0.74087789  0.82276079  0.96002833  1 -0.010345
  C  C114  1  0.73055455  0.68329297  0.91956415  1 0.555436
  C  C115  1  0.73759628  0.87354837  0.91851964  1 0.560051
  C  C116  1  0.24079523  0.23551383  0.46003116  1 0.006704
  C  C117  1  0.24086884  0.32274693  0.46002781  1 -0.011098
  C  C118  1  0.23054479  0.18328023  0.41956482  1 0.554759
  C  C119  1  0.23758552  0.37354327  0.41851465  1 0.559867
  C  C120  1  0.75920699  0.26447294  0.46003401  1 0.006723
  C  C121  1  0.75913620  0.17724152  0.46002802  1 -0.01108
  C  C122  1  0.76946067  0.31670623  0.41956694  1 0.554755
  C  C123  1  0.76241663  0.12645041  0.41851251  1 0.559945
  C  C124  1  0.25920107  0.76448155  0.96002876  1 0.006752
  C  C125  1  0.25912956  0.67724129  0.96002497  1 -0.011534
  C  C126  1  0.26945383  0.81670792  0.91956021  1 0.554796
  C  C127  1  0.26240958  0.62645674  0.91851864  1 0.559859
  C  C128  1  0.01448302  0.99079525  0.71003316  1 0.007616
  C  C129  1  0.92723738  0.99086559  0.71002966  1 -0.01164
  C  C130  1  0.06671376  0.98055261  0.66956486  1 0.554247
  C  C131  1  0.87646238  0.98758019  0.66852034  1 0.559865
  C  C132  1  0.51447006  0.49080717  0.21003563  1 0.003464
  C  C133  1  0.42723457  0.49087466  0.21003228  1 -0.010251
  C  C134  1  0.56670984  0.48056592  0.16957441  1 0.555404
  C  C135  1  0.37644896  0.48759336  0.16852506  1 0.560016
  C  C136  1  0.48552056  0.00919781  0.21003250  1 0.006771
  C  C137  1  0.57275783  0.00912708  0.21003089  1 -0.011314
  C  C138  1  0.43328068  0.01943759  0.16957079  1 0.554632
  C  C139  1  0.62354779  0.01240763  0.16852371  1 0.559781
  C  C140  1  0.98551569  0.50921061  0.71003318  1 0.007634
  C  C141  1  0.07275766  0.50914141  0.71002926  1 -0.011577
  C  C142  1  0.93328753  0.51945908  0.66956469  1 0.554377
  C  C143  1  0.12353481  0.51242476  0.66851898  1 0.559917
  C  C144  1  0.75921843  0.73551706  0.03997291  1 0.007631
  C  C145  1  0.75914647  0.82275868  0.03997541  1 -0.011593
  C  C146  1  0.76946990  0.68329291  0.08044215  1 0.554238
  C  C147  1  0.76242984  0.87354419  0.08148697  1 0.560009
  C  C148  1  0.25920778  0.23551558  0.53996619  1 0.006657
  C  C149  1  0.25914100  0.32274816  0.53997014  1 -0.011088
  C  C150  1  0.26945879  0.18328331  0.58043099  1 0.55457
  C  C151  1  0.26242245  0.37354197  0.58148007  1 0.559767
  C  C152  1  0.74078746  0.26447665  0.53997198  1 0.007533
  C  C153  1  0.74086205  0.17724364  0.53997503  1 -0.011579
  C  C154  1  0.73053205  0.31670917  0.58043975  1 0.554482
  C  C155  1  0.73758189  0.12644921  0.58148820  1 0.560026
  C  C156  1  0.24077692  0.76448091  0.03996846  1 0.0076
  C  C157  1  0.24085233  0.67724119  0.03997325  1 -0.011647
  C  C158  1  0.23052236  0.81670376  0.08043893  1 0.554004
  C  C159  1  0.23757395  0.62646648  0.08148535  1 0.559909
  C  C160  1  0.48552577  0.99078709  0.28997077  1 0.006712
  C  C161  1  0.57276133  0.99085650  0.28997795  1 -0.011184
  C  C162  1  0.43328548  0.98054933  0.33043419  1 0.554606
  C  C163  1  0.62354261  0.98757971  0.33148948  1 0.559822
  C  C164  1  0.98551900  0.49077799  0.78997054  1 0.007667
  C  C165  1  0.07275814  0.49085401  0.78997525  1 -0.011773
  C  C166  1  0.93329061  0.48053149  0.83043613  1 0.554118
  C  C167  1  0.12353452  0.48757268  0.83147811  1 0.559684
  C  C168  1  0.01448489  0.00922914  0.78997025  1 0.007791
  C  C169  1  0.92724239  0.00915467  0.78997547  1 -0.011777
  C  C170  1  0.06671307  0.01947770  0.83043807  1 0.553945
  C  C171  1  0.87646860  0.01243172  0.83148532  1 0.55984
  C  C172  1  0.51447458  0.50921202  0.28997461  1 0.006709
  C  C173  1  0.42723725  0.50914249  0.28997787  1 -0.011287
  C  C174  1  0.56671095  0.51945708  0.33044401  1 0.554721
  C  C175  1  0.37644870  0.51242334  0.33149214  1 0.559997
  C  C176  1  0.24999015  0.30723414  0.99999362  1 -0.087971
  C  C177  1  0.24999194  0.13488792  0.99999227  1 -0.067785
  C  C178  1  0.75000099  0.80724466  0.50000403  1 -0.089331
  C  C179  1  0.74999654  0.63489434  0.50000352  1 -0.06774
  C  C180  1  0.25000909  0.69275470  0.50000067  1 -0.089318
  C  C181  1  0.25000025  0.86510939  0.49999802  1 -0.067754
  C  C182  1  0.75001166  0.19275808  0.99999255  1 -0.088355
  C  C183  1  0.75000637  0.36510595  0.99999333  1 -0.067645
  C  C184  1  0.94275756  0.99998634  0.25000049  1 -0.089471
  C  C185  1  0.11511509  0.99999076  0.24999938  1 -0.067384
  C  C186  1  0.44276108  0.50000221  0.74999792  1 -0.089419
  C  C187  1  0.61511214  0.49999932  0.74999881  1 -0.067553
  C  C188  1  0.55723630  0.00000768  0.75000012  1 -0.089048
  C  C189  1  0.38488651  0.00000443  0.74999935  1 -0.067408
  C  C190  1  0.05724530  0.50001101  0.24999875  1 -0.089787
  C  C191  1  0.88488563  0.50001034  0.24999901  1 -0.067381
  C  C192  1  0.75001326  0.69276130  0.00000109  1 -0.088521
  C  C193  1  0.75000716  0.86510927  0.00000163  1 -0.067555
  C  C194  1  0.25000000  0.19274754  0.49999945  1 -0.088946
  C  C195  1  0.25000762  0.36510580  0.49999954  1 -0.067781
  C  C196  1  0.74999628  0.30724188  0.50000235  1 -0.089347
  C  C197  1  0.75000170  0.13488903  0.50000120  1 -0.067762
  C  C198  1  0.24999120  0.80723958  -0.00000035  1 -0.089453
  C  C199  1  0.24999145  0.63489403  -0.00000026  1 -0.067447
  C  C200  1  0.05724208  0.00000988  0.75000066  1 -0.089749
  C  C201  1  0.88489000  0.00000851  0.75000221  1 -0.067398
  C  C202  1  0.55723672  0.50001033  0.25000319  1 -0.088043
  C  C203  1  0.38487911  0.50000533  0.25000388  1 -0.067504
  C  C204  1  0.44275783  0.99999341  0.25000289  1 -0.088972
  C  C205  1  0.61511397  0.99999039  0.25000495  1 -0.067537
  C  C206  1  0.94275584  0.49999298  0.75000262  1 -0.089746
  C  C207  1  0.11510988  0.50000059  0.75000249  1 -0.067448
  O  O208  1  0.21270784  0.37028610  0.08751249  1 -0.477759
  O  O209  1  0.33427408  0.31014465  0.10291905  1 -0.305899
  O  O210  1  0.28191040  0.04976941  0.07640611  1 -0.512773
  O  O211  1  0.24284926  0.15803741  0.11779676  1 -0.35694
  O  O212  1  0.71270576  0.87029002  0.58752255  1 -0.477921
  O  O213  1  0.83429327  0.81015880  0.60292192  1 -0.30602
  O  O214  1  0.78192631  0.54976518  0.57641492  1 -0.51295
  O  O215  1  0.74287109  0.65804451  0.61780413  1 -0.356917
  O  O216  1  0.28729435  0.62970613  0.58751544  1 -0.477929
  O  O217  1  0.16571829  0.68985179  0.60291959  1 -0.306082
  O  O218  1  0.21807234  0.95023376  0.57640550  1 -0.512901
  O  O219  1  0.25713608  0.84196123  0.61779575  1 -0.3569
  O  O220  1  0.78730687  0.12972151  0.08751157  1 -0.477593
  O  O221  1  0.66572416  0.18984836  0.10291165  1 -0.305873
  O  O222  1  0.71807954  0.45021973  0.07640761  1 -0.512662
  O  O223  1  0.75714853  0.34194851  0.11779875  1 -0.356713
  O  O224  1  0.87971771  0.96268203  0.33751980  1 -0.477929
  O  O225  1  0.93985233  0.08426742  0.35291895  1 -0.30597
  O  O226  1  0.20023258  0.03192006  0.32641355  1 -0.51282
  O  O227  1  0.09194967  0.99285374  0.36779832  1 -0.356676
  O  O228  1  0.37971948  0.46269833  0.83751286  1 -0.477815
  O  O229  1  0.43984026  0.58428895  0.85291353  1 -0.306014
  O  O230  1  0.70023332  0.53192284  0.82640549  1 -0.512697
  O  O231  1  0.59195347  0.49284989  0.86780232  1 -0.356803
  O  O232  1  0.62028061  0.03730194  0.83750866  1 -0.477896
  O  O233  1  0.56014557  0.91572401  0.85292347  1 -0.306118
  O  O234  1  0.29976653  0.96807913  0.82640405  1 -0.512767
  O  O235  1  0.40804064  0.00714898  0.86780510  1 -0.356927
  O  O236  1  0.12027892  0.53732415  0.33751604  1 -0.477838
  O  O237  1  0.06015119  0.41573413  0.35291739  1 -0.305945
  O  O238  1  0.79976695  0.46807305  0.32641420  1 -0.512859
  O  O239  1  0.90804749  0.50713873  0.36780196  1 -0.356734
  O  O240  1  0.28726613  0.37027740  0.91247795  1 -0.47787
  O  O241  1  0.16570179  0.31013240  0.89707116  1 -0.305862
  O  O242  1  0.21807023  0.04977290  0.92358172  1 -0.512834
  O  O243  1  0.25712638  0.15804000  0.88218759  1 -0.356906
  O  O244  1  0.78729990  0.87028823  0.41248547  1 -0.478047
  O  O245  1  0.66572246  0.81016781  0.39708703  1 -0.306039
  O  O246  1  0.71807244  0.54977095  0.42359559  1 -0.512922
  O  O247  1  0.75712440  0.65804263  0.38220536  1 -0.356811
  O  O248  1  0.21269998  0.62971943  0.41248593  1 -0.477962
  O  O249  1  0.33428532  0.68985172  0.39708042  1 -0.306051
  O  O250  1  0.28191663  0.95022789  0.42358971  1 -0.512799
  O  O251  1  0.24285772  0.84195656  0.38219720  1 -0.356817
  O  O252  1  0.71272523  0.12973165  0.91247223  1 -0.477845
  O  O253  1  0.83431556  0.18984481  0.89707332  1 -0.305664
  O  O254  1  0.78193123  0.45021609  0.92358066  1 -0.51278
  O  O255  1  0.74288104  0.34193939  0.88218648  1 -0.356647
  O  O256  1  0.62027279  0.96269660  0.66248299  1 -0.477904
  O  O257  1  0.56015166  0.08428336  0.64707976  1 -0.306049
  O  O258  1  0.29976713  0.03192623  0.67358529  1 -0.512806
  O  O259  1  0.40804518  0.99286925  0.63219541  1 -0.356795
  O  O260  1  0.12028119  0.46270749  0.16248179  1 -0.477803
  O  O261  1  0.06015909  0.58430478  0.14708548  1 -0.305839
  O  O262  1  0.79976852  0.53193255  0.17358524  1 -0.512797
  O  O263  1  0.90806989  0.49288280  0.13219759  1 -0.356775
  O  O264  1  0.87972509  0.03728990  0.16248158  1 -0.477738
  O  O265  1  0.93986250  0.91569522  0.14708533  1 -0.30578
  O  O266  1  0.20023303  0.96806579  0.17358536  1 -0.512874
  O  O267  1  0.09193590  0.00712308  0.13220060  1 -0.35667
  O  O268  1  0.37971734  0.53730786  0.66247574  1 -0.477684
  O  O269  1  0.43984602  0.41572467  0.64707377  1 -0.30587
  O  O270  1  0.70023233  0.46806683  0.67358951  1 -0.512884
  O  O271  1  0.59195762  0.50713221  0.63219435  1 -0.356871
  O  O272  1  0.78729465  0.62971477  0.91248627  1 -0.477726
  O  O273  1  0.66572519  0.68985187  0.89708196  1 -0.305951
  O  O274  1  0.71808226  0.95022522  0.92359462  1 -0.512843
  O  O275  1  0.75714714  0.84196801  0.88220180  1 -0.356976
  O  O276  1  0.28730103  0.12969578  0.41248322  1 -0.477962
  O  O277  1  0.16571702  0.18982353  0.39708019  1 -0.306078
  O  O278  1  0.21806516  0.45022898  0.42359553  1 -0.512957
  O  O279  1  0.25713132  0.34196061  0.38220519  1 -0.356852
  O  O280  1  0.71270683  0.37028999  0.41248953  1 -0.478066
  O  O281  1  0.83427537  0.31015063  0.39708438  1 -0.305995
  O  O282  1  0.78193078  0.04976763  0.42359234  1 -0.513
  O  O283  1  0.74287648  0.15802846  0.38220561  1 -0.356939
  O  O284  1  0.21270851  0.87028144  0.91247865  1 -0.477868
  O  O285  1  0.33428741  0.81016143  0.89707946  1 -0.306099
  O  O286  1  0.28191057  0.54977693  0.92358616  1 -0.512729
  O  O287  1  0.24286311  0.65804860  0.88219547  1 -0.356908
  O  O288  1  0.12029009  0.03730495  0.66247887  1 -0.477748
  O  O289  1  0.06016138  0.91572852  0.64707999  1 -0.305899
  O  O290  1  0.79976840  0.96806633  0.67359266  1 -0.512821
  O  O291  1  0.90804307  0.00712612  0.63220425  1 -0.356785
  O  O292  1  0.62029681  0.53730815  0.16248858  1 -0.477739
  O  O293  1  0.56014694  0.41573138  0.14708731  1 -0.305844
  O  O294  1  0.29975593  0.46808126  0.17359208  1 -0.512944
  O  O295  1  0.40803837  0.50714758  0.13220761  1 -0.35686
  O  O296  1  0.37970154  0.96268284  0.16249021  1 -0.477873
  O  O297  1  0.43983161  0.08427300  0.14708662  1 -0.306077
  O  O298  1  0.70024170  0.03191974  0.17359134  1 -0.512898
  O  O299  1  0.59195610  0.99284912  0.13220645  1 -0.356787
  O  O300  1  0.87972221  0.46269084  0.66248294  1 -0.477977
  O  O301  1  0.93984125  0.58428316  0.64708434  1 -0.306077
  O  O302  1  0.20022615  0.53193623  0.67358952  1 -0.512858
  O  O303  1  0.09195339  0.49287693  0.63220054  1 -0.356863
  O  O304  1  0.71272603  0.62971552  0.08752466  1 -0.477883
  O  O305  1  0.83430262  0.68984516  0.10292197  1 -0.305853
  O  O306  1  0.78194940  0.95022414  0.07641410  1 -0.513018
  O  O307  1  0.74288212  0.84195712  0.11779983  1 -0.356894
  O  O308  1  0.21270687  0.12969755  0.58751827  1 -0.477871
  O  O309  1  0.33428678  0.18983126  0.60291492  1 -0.305967
  O  O310  1  0.28192950  0.45023441  0.57640756  1 -0.512919
  O  O311  1  0.24288347  0.34195949  0.61779384  1 -0.35669
  O  O312  1  0.78728421  0.37029357  0.58751970  1 -0.478088
  O  O313  1  0.66571140  0.31015193  0.60292282  1 -0.305971
  O  O314  1  0.71807587  0.04976362  0.57641400  1 -0.512982
  O  O315  1  0.75712168  0.15803515  0.61779954  1 -0.35692
  O  O316  1  0.28727550  0.87027451  0.08751991  1 -0.477831
  O  O317  1  0.16569737  0.81015328  0.10291896  1 -0.305713
  O  O318  1  0.21806455  0.54978201  0.07641478  1 -0.512898
  O  O319  1  0.25711389  0.65805347  0.11780077  1 -0.356902
  O  O320  1  0.37970512  0.03730337  0.33751655  1 -0.477783
  O  O321  1  0.43983669  0.91572753  0.35291856  1 -0.305937
  O  O322  1  0.70023368  0.96806913  0.32641610  1 -0.512871
  O  O323  1  0.59196215  0.00712763  0.36780128  1 -0.356853
  O  O324  1  0.87972483  0.53728739  0.83751866  1 -0.477821
  O  O325  1  0.93984346  0.41570022  0.85291952  1 -0.305832
  O  O326  1  0.20022213  0.46806744  0.82640780  1 -0.512709
  O  O327  1  0.09194180  0.50712955  0.86780272  1 -0.356792
  O  O328  1  0.12027513  0.96271378  0.83751569  1 -0.4779
  O  O329  1  0.06016276  0.08430664  0.85291808  1 -0.30575
  O  O330  1  0.79977483  0.03193172  0.82640940  1 -0.512781
  O  O331  1  0.90805707  0.99288698  0.86780167  1 -0.356846
  O  O332  1  0.62028369  0.46269549  0.33752505  1 -0.477903
  O  O333  1  0.56015300  0.58427961  0.35292230  1 -0.306007
  O  O334  1  0.29976067  0.53193559  0.32641698  1 -0.512996
  O  O335  1  0.40803541  0.49287450  0.36780345  1 -0.356895
