# generated using pymatgen
data_CuH8C11O6
_symmetry_space_group_name_H-M   'P 1'
_cell_length_a   18.79758400
_cell_length_b   18.88946810
_cell_length_c   7.94431877
_cell_angle_alpha   90.34932851
_cell_angle_beta   89.56199342
_cell_angle_gamma   120.34557417
_symmetry_Int_Tables_number   1
_chemical_formula_structural   CuH8C11O6
_chemical_formula_sum   'Cu6 H48 C66 O36'
_cell_volume   2434.28844868
_cell_formula_units_Z   6
loop_
 _symmetry_equiv_pos_site_id
 _symmetry_equiv_pos_as_xyz
  1  'x, y, z'
loop_
 _atom_site_type_symbol
 _atom_site_label
 _atom_site_symmetry_multiplicity
 _atom_site_fract_x
 _atom_site_fract_y
 _atom_site_fract_z
 _atom_site_occupancy
 _atom_site_charge
  Cu  Cu0  1  0.47831542  0.52454294  0.12025997  1 0.742778
  Cu  Cu1  1  0.47551819  0.95371416  0.09160692  1 0.76411
  Cu  Cu2  1  0.04198931  0.52975244  0.11986156  1 0.787159
  Cu  Cu3  1  0.52502429  0.48180275  0.86666063  1 0.749877
  Cu  Cu4  1  0.95386299  0.48015277  0.86837431  1 0.743268
  Cu  Cu5  1  0.52201678  0.04193931  0.83872226  1 0.714303
  H  H6  1  0.37490873  0.30030953  0.40903464  1 0.12809
  H  H7  1  0.31520774  0.09597454  0.94114900  1 0.103861
  H  H8  1  0.22936877  0.05643801  0.79710433  1 0.108596
  H  H9  1  0.69288710  0.07240133  0.41999251  1 0.125206
  H  H10  1  0.90285579  0.23391495  0.95111396  1 0.102376
  H  H11  1  0.95411756  0.18903063  0.83836221  1 0.088139
  H  H12  1  0.91179599  0.59764418  0.46619566  1 0.131582
  H  H13  1  0.78147718  0.65602297  0.98965835  1 0.091523
  H  H14  1  0.83161434  0.76238836  0.92800254  1 0.093675
  H  H15  1  0.30465865  0.38372973  0.56745437  1 0.117774
  H  H16  1  0.11441347  0.37186714  0.14652115  1 0.084302
  H  H17  1  0.00597535  0.30496924  0.17946583  1 0.090058
  H  H18  1  0.07473550  0.67900296  0.54758263  1 0.118278
  H  H19  1  0.12629964  0.80529909  0.02107801  1 0.091618
  H  H20  1  0.22471840  0.89701267  -0.00646151  1 0.109361
  H  H21  1  0.62106080  0.92327216  0.53677541  1 0.123848
  H  H22  1  0.64030171  0.73797911  0.11287141  1 0.121929
  H  H23  1  0.74490496  0.81121691  0.05034849  1 0.085599
  H  H24  1  0.63741516  0.70179267  0.54886739  1 0.121437
  H  H25  1  0.69005338  0.89456161  0.01241792  1 0.104205
  H  H26  1  0.77711105  0.94662733  0.15325119  1 0.093856
  H  H27  1  0.31541142  0.89902199  0.49702656  1 0.119095
  H  H28  1  0.05576536  0.83821256  0.33083840  1 0.081508
  H  H29  1  0.02305901  0.75749386  0.48334469  1 0.090761
  H  H30  1  0.06189846  0.35710993  0.60205870  1 0.118645
  H  H31  1  0.14743140  0.27698580  0.07947521  1 0.093742
  H  H32  1  0.26539726  0.33006138  0.07435631  1 0.104936
  H  H33  1  0.68487619  0.60745411  0.47566110  1 0.125793
  H  H34  1  0.91779503  0.67204258  0.98187760  1 0.104053
  H  H35  1  0.95891404  0.76354905  0.85604536  1 0.086945
  H  H36  1  0.91609080  0.31292210  0.43135991  1 0.131716
  H  H37  1  0.76987357  0.11059900  0.93023884  1 0.093051
  H  H38  1  0.82577014  0.05836621  0.88065605  1 0.095611
  H  H39  1  0.38575718  0.07543464  0.41451693  1 0.130076
  H  H40  1  0.35617713  0.22913387  0.88850855  1 0.114388
  H  H41  1  0.24623009  0.18907399  0.88976569  1 0.101751
  H  H42  1  0.48425253  0.24073935  -0.00478188  1 0.130786
  H  H43  1  0.75470550  0.23885163  0.00451886  1 0.132747
  H  H44  1  0.75054530  0.51536972  0.03989596  1 0.13165
  H  H45  1  0.23727608  0.47424718  0.00110116  1 0.131589
  H  H46  1  0.24517451  0.75807610  0.93050358  1 0.130497
  H  H47  1  0.52438010  0.75979933  0.95864326  1 0.131499
  H  H48  1  0.28921161  0.00647280  0.81724341  1 0.140307
  H  H49  1  0.06384629  0.38899162  0.32070168  1 0.108182
  H  H50  1  0.72162846  0.71861157  0.15959795  1 0.122602
  H  H51  1  0.70854736  0.98596118  0.11902239  1 0.120307
  H  H52  1  0.97275221  0.73619489  0.28377308  1 0.107954
  H  H53  1  0.31659030  0.29255192  0.82036806  1 0.131992
  C  C54  1  0.45310647  0.35848823  0.11269416  1 0.56566
  C  C55  1  0.43068261  0.27803264  0.19411170  1 -0.032615
  C  C56  1  0.39101125  0.25809207  0.34986861  1 -0.083442
  C  C57  1  0.29077883  0.06514882  0.82020526  1 -0.17292
  C  C58  1  0.63848012  0.08894647  0.11483489  1 0.55419
  C  C59  1  0.71680037  0.14888219  0.20333565  1 -0.033965
  C  C60  1  0.73560843  0.13057977  0.36030864  1 -0.107752
  C  C61  1  0.89807389  0.19329001  0.84752724  1 -0.001658
  C  C62  1  0.90006374  0.54307633  0.14881712  1 0.558856
  C  C63  1  0.83844816  0.55692488  0.24326047  1 -0.035386
  C  C64  1  0.85574116  0.58789272  0.40592484  1 -0.100902
  C  C65  1  0.82395110  0.70216210  0.89972732  1 -0.008033
  C  C66  1  0.35962023  0.45543558  0.86648485  1 0.567353
  C  C67  1  0.27587908  0.42565496  0.79441467  1 -0.036922
  C  C68  1  0.25730130  0.38885493  0.63704157  1 -0.127665
  C  C69  1  0.06544475  0.34228856  0.24105499  1 -0.177677
  C  C70  1  0.08598340  0.64603817  0.85595917  1 0.575836
  C  C71  1  0.14204104  0.72517055  0.76988420  1 -0.027415
  C  C72  1  0.12925294  0.73118275  0.60199483  1 -0.116053
  C  C73  1  0.19313561  0.83121610  0.01974780  1 -0.316916
  C  C74  1  0.54756624  0.90466398  0.83662505  1 0.567998
  C  C75  1  0.57260096  0.84830686  0.75658534  1 -0.024131
  C  C76  1  0.61107230  0.86806498  0.60017958  1 -0.098658
  C  C77  1  0.70564131  0.76646678  0.14589347  1 -0.169293
  C  C78  1  0.55684465  0.64307779  0.84546806  1 0.571467
  C  C79  1  0.58007510  0.72334336  0.76234734  1 -0.031357
  C  C80  1  0.62119600  0.74386938  0.60810375  1 -0.09909
  C  C81  1  0.71326329  0.93074427  0.12861893  1 -0.173234
  C  C82  1  0.35978006  0.90957808  0.81438452  1 0.564311
  C  C83  1  0.27785715  0.85044554  0.74152151  1 -0.032481
  C  C84  1  0.26486344  0.85200726  0.57200775  1 -0.132005
  C  C85  1  0.03179598  0.77213992  0.34844461  1 -0.172947
  C  C86  1  0.08918871  0.44875343  0.87717130  1 0.574286
  C  C87  1  0.14230416  0.41605893  0.80942665  1 -0.027672
  C  C88  1  0.12102360  0.37354037  0.65747010  1 -0.112339
  C  C89  1  0.20809113  0.31987372  0.12919901  1 -0.32147
  C  C90  1  0.63505362  0.54710084  0.15828410  1 0.558076
  C  C91  1  0.71096152  0.56125642  0.24916956  1 -0.036773
  C  C92  1  0.72813955  0.59409268  0.41099659  1 -0.102914
  C  C93  1  0.90513556  0.70248975  0.87941194  1 0.000206
  C  C94  1  0.89894254  0.36330616  0.12492050  1 0.55756
  C  C95  1  0.84186487  0.28318773  0.20939993  1 -0.032802
  C  C96  1  0.86091944  0.26663934  0.36740053  1 -0.102002
  C  C97  1  0.81766001  0.11033518  0.85052575  1 -0.007438
  C  C98  1  0.45433962  0.09221232  0.10702086  1 0.566253
  C  C99  1  0.43368677  0.15055664  0.19398448  1 -0.02704
  C  C100  1  0.39708251  0.13153698  0.35268910  1 -0.084502
  C  C101  1  0.30481497  0.22967018  0.82603838  1 -0.166088
  C  C102  1  0.37499797  0.18511083  0.43182304  1 -0.068876
  C  C103  1  0.45206824  0.22443706  0.11582917  1 -0.095843
  C  C104  1  0.33880260  0.16641733  0.59630718  1 0.401583
  C  C105  1  0.80847702  0.18943247  0.44345945  1 -0.069059
  C  C106  1  0.76999857  0.22471650  0.12686658  1 -0.111403
  C  C107  1  0.82942122  0.17299820  0.60286213  1 0.374536
  C  C108  1  0.80162625  0.60819893  0.49046292  1 -0.067807
  C  C109  1  0.76540460  0.54209261  0.16543488  1 -0.109672
  C  C110  1  0.82530746  0.64548365  0.65034481  1 0.370829
  C  C111  1  0.17810050  0.35958590  0.56616908  1 -0.042407
  C  C112  1  0.21796671  0.43732959  0.88715873  1 -0.110883
  C  C113  1  0.15696563  0.32440849  0.40279614  1 0.282499
  C  C114  1  0.18825130  0.79405996  0.49048359  1 -0.044305
  C  C115  1  0.21624906  0.78828970  0.86575279  1 -0.112847
  C  C116  1  0.16677020  0.79172778  0.31957698  1 0.282703
  C  C117  1  0.63691062  0.81659220  0.52492396  1 -0.06661
  C  C118  1  0.55672906  0.77597453  0.83835125  1 -0.100769
  C  C119  1  0.67434135  0.83638442  0.36278180  1 0.366814
  O  O120  1  0.43095746  0.40359901  0.18916476  1 -0.521028
  O  O121  1  0.49286520  0.37412792  0.97373387  1 -0.533992
  O  O122  1  0.34713595  0.11233053  0.68595727  1 -0.129453
  O  O123  1  0.58632871  0.02717585  0.19963776  1 -0.517327
  O  O124  1  0.63200059  0.10600122  0.96255389  1 -0.548565
  O  O125  1  0.89157233  0.23037538  0.69267146  1 -0.160465
  O  O126  1  0.96711001  0.56396050  0.22540789  1 -0.526111
  O  O127  1  0.88033740  0.51399927  0.00032561  1 -0.529794
  O  O128  1  0.78634444  0.67760618  0.73379991  1 -0.178798
  O  O129  1  0.40725356  0.43635746  0.78776689  1 -0.540198
  O  O130  1  0.37597299  0.49626549  0.00343184  1 -0.516805
  O  O131  1  0.07839545  0.28634125  0.34559764  1 -0.164093
  O  O132  1  0.02192725  0.59179184  0.77704928  1 -0.53972
  O  O133  1  0.10774040  0.63765109  0.00356221  1 -0.520998
  O  O134  1  0.22002528  0.82831964  0.19098455  1 -0.03007
  O  O135  1  0.55764996  0.96519454  0.74828544  1 -0.523886
  O  O136  1  0.51919575  0.88687728  -0.01369037  1 -0.530429
  O  O137  1  0.72094406  0.80555435  0.31118315  1 -0.176059
  O  O138  1  0.56104679  0.58920785  0.75547392  1 -0.520445
  O  O139  1  0.53424301  0.63595169  0.99929840  1 -0.539654
  O  O140  1  0.66042943  0.88600253  0.26777972  1 -0.128803
  O  O141  1  0.41059286  0.97338243  0.73103433  1 -0.543418
  O  O142  1  0.37197515  0.89074191  0.96211602  1 -0.520488
  O  O143  1  0.08655134  0.74881003  0.27156925  1 -0.170004
  O  O144  1  0.03026383  0.44014961  0.78427501  1 -0.534623
  O  O145  1  0.10906825  0.48511653  0.02007327  1 -0.522811
  O  O146  1  0.21607925  0.33625480  0.29474713  1 -0.029704
  O  O147  1  0.58051716  0.55250280  0.24464307  1 -0.526825
  O  O148  1  0.63294657  0.53191206  0.00121397  1 -0.540278
  O  O149  1  0.89161500  0.65362523  0.72847866  1 -0.16121
  O  O150  1  0.95788972  0.41703379  0.21322488  1 -0.523165
  O  O151  1  0.88362416  0.36920428  0.97113041  1 -0.534605
  O  O152  1  0.78885151  0.09966923  0.67702684  1 -0.183025
  O  O153  1  0.43816249  0.02779034  0.18824015  1 -0.529443
  O  O154  1  0.48550536  0.11245842  0.95978734  1 -0.524556
  O  O155  1  0.29949485  0.20387390  0.65042083  1 -0.155121
