# generated using pymatgen
data_CuH24(C4N3)4
_symmetry_space_group_name_H-M   'P 1'
_cell_length_a   15.10139678
_cell_length_b   14.58641758
_cell_length_c   25.71787122
_cell_angle_alpha   96.34280729
_cell_angle_beta   102.32052106
_cell_angle_gamma   58.82327766
_symmetry_Int_Tables_number   1
_chemical_formula_structural   CuH24(C4N3)4
_chemical_formula_sum   'Cu6 H144 C96 N72'
_cell_volume   4735.21348987
_cell_formula_units_Z   6
loop_
 _symmetry_equiv_pos_site_id
 _symmetry_equiv_pos_as_xyz
  1  'x, y, z'
loop_
 _atom_site_type_symbol
 _atom_site_label
 _atom_site_symmetry_multiplicity
 _atom_site_fract_x
 _atom_site_fract_y
 _atom_site_fract_z
 _atom_site_occupancy
 _atom_site_charge
  Cu  Cu0  1  0.17852154  0.05542125  0.67371329  1 0.27343
  Cu  Cu1  1  0.76605090  0.05542957  0.82628579  1 0.273549
  Cu  Cu2  1  0.82148550  0.94457781  0.32628588  1 0.273252
  Cu  Cu3  1  0.23396730  0.94455750  0.17371966  1 0.273563
  Cu  Cu4  1  0.99998285  0.49998976  0.50000275  1 0.267445
  Cu  Cu5  1  0.49988245  0.50009847  0.00007004  1 0.26715
  H  H6  1  0.03039760  0.35085019  0.63398780  1 0.07802
  H  H7  1  0.81839294  0.43348426  0.48841177  1 0.068241
  H  H8  1  0.66772491  0.46047280  0.59285254  1 0.051921
  H  H9  1  0.65833660  0.46123582  0.52288634  1 0.051947
  H  H10  1  0.75794999  0.26019167  0.59159997  1 0.085424
  H  H11  1  0.62956695  0.32236945  0.55397231  1 0.040093
  H  H12  1  0.69075910  0.23000321  0.47860328  1 0.068948
  H  H13  1  0.77669525  0.27928383  0.48296542  1 0.075019
  H  H14  1  0.86656534  0.07786831  0.48373039  1 0.091158
  H  H15  1  0.82796849  0.08578598  0.54521759  1 0.085664
  H  H16  1  0.95129323  0.08596944  0.62981267  1 0.093244
  H  H17  1  0.15193689  0.12882652  0.55702475  1 0.083526
  H  H18  1  0.04019390  0.26216911  0.48527659  1 0.103956
  H  H19  1  0.14359689  0.42320358  0.41019154  1 0.09342
  H  H20  1  0.09977105  0.09496215  0.41516142  1 0.085169
  H  H21  1  0.17962694  0.09007363  0.37192622  1 0.090673
  H  H22  1  0.28184124  0.94305695  0.43836877  1 0.089622
  H  H23  1  0.24535277  0.03584793  0.49128303  1 0.090797
  H  H24  1  0.42540301  0.97344314  0.48635287  1 0.090057
  H  H25  1  0.35008712  0.11048896  0.46827754  1 0.095223
  H  H26  1  0.41183069  0.92504719  0.38772098  1 0.07959
  H  H27  1  0.35048761  0.06320260  0.37292798  1 0.095355
  H  H28  1  0.61151779  0.81930244  0.41090400  1 0.083249
  H  H29  1  0.66134351  0.07722387  0.41464470  1 0.074703
  H  H30  1  0.30637207  0.14209662  0.75723541  1 0.081684
  H  H31  1  0.38832884  0.82945079  0.70384296  1 0.07688
  H  H32  1  0.59811050  0.82251860  0.82427601  1 0.095451
  H  H33  1  0.51165054  0.77453740  0.82348922  1 0.078624
  H  H34  1  0.55060969  0.69192809  0.73131105  1 0.065066
  H  H35  1  0.64645154  0.63083693  0.78788511  1 0.097016
  H  H36  1  0.14666630  0.98953053  0.79345366  1 0.075049
  H  H37  1  0.97694132  0.26686418  0.69872581  1 0.093916
  H  H38  1  0.96983990  0.36781911  0.82669849  1 0.022796
  H  H39  1  0.87556706  0.33132707  0.83012093  1 0.082717
  H  H40  1  0.87398019  0.43063015  0.72993159  1 0.080666
  H  H41  1  0.81512450  0.50457716  0.78371807  1 0.075761
  H  H42  1  0.61877501  0.35081607  0.86599028  1 0.078647
  H  H43  1  0.74810881  0.43342690  0.01158737  1 0.068348
  H  H44  1  0.87178354  0.46048142  0.90715967  1 0.052128
  H  H45  1  0.88039693  0.46123588  0.97712481  1 0.05274
  H  H46  1  0.98185407  0.26020516  0.90840305  1 0.085537
  H  H47  1  0.04805053  0.32238467  0.94603452  1 0.040779
  H  H48  1  0.07924809  0.22999770  0.02139665  1 0.067806
  H  H49  1  0.94402698  0.27927737  0.01704229  1 0.074746
  H  H50  1  0.05559072  0.07786228  0.01626590  1 0.091319
  H  H51  1  0.08626291  0.08579513  0.95477823  1 0.085985
  H  H52  1  0.96274373  0.08597126  0.87018084  1 0.092692
  H  H53  1  0.71924801  0.12883125  0.94297505  1 0.084128
  H  H54  1  0.69754124  0.26224024  0.01471958  1 0.103185
  H  H55  1  0.43316060  0.42318862  0.08985622  1 0.09354
  H  H56  1  0.80523509  0.09499719  0.08481393  1 0.08525
  H  H57  1  0.73031165  0.09007463  0.12806386  1 0.090445
  H  H58  1  0.77509529  0.94307337  0.06161957  1 0.088374
  H  H59  1  0.71876872  0.03586222  0.00870365  1 0.090461
  H  H60  1  0.60114592  0.97344321  0.01364411  1 0.089705
  H  H61  1  0.53939982  0.11049180  0.03172214  1 0.094666
  H  H62  1  0.66312592  0.92504300  0.11227553  1 0.080152
  H  H63  1  0.58629886  0.06319939  0.12707116  1 0.094551
  H  H64  1  0.56920154  0.81929418  0.08909009  1 0.083833
  H  H65  1  0.26143318  0.07720166  0.08536213  1 0.075773
  H  H66  1  0.55154246  0.14208961  0.74276491  1 0.081279
  H  H67  1  0.78225634  0.82944801  0.79615118  1 0.076335
  H  H68  1  0.57939983  0.82251889  0.67571811  1 0.096496
  H  H69  1  0.71384688  0.77452785  0.67650567  1 0.079052
  H  H70  1  0.75748845  0.69192239  0.76868279  1 0.065832
  H  H71  1  0.72273886  0.63083325  0.71210748  1 0.097216
  H  H72  1  0.86380720  0.98953513  0.70654540  1 0.074941
  H  H73  1  0.75619781  0.26687305  0.80127639  1 0.09376
  H  H74  1  0.66234824  0.36781021  0.67329993  1 0.021127
  H  H75  1  0.79311719  0.33131745  0.66987908  1 0.082178
  H  H76  1  0.69538634  0.43063478  0.77006733  1 0.080682
  H  H77  1  0.68029470  0.50457604  0.71628116  1 0.075717
  H  H78  1  0.96959260  0.64916014  0.36599887  1 0.078079
  H  H79  1  0.18157176  0.56652808  0.51158308  1 0.068234
  H  H80  1  0.33226717  0.53951600  0.40714922  1 0.05193
  H  H81  1  0.34164810  0.53875411  0.47711540  1 0.05196
  H  H82  1  0.24205637  0.73979676  0.40840274  1 0.085398
  H  H83  1  0.37044029  0.67760705  0.44603276  1 0.040089
  H  H84  1  0.30924530  0.76998271  0.52139904  1 0.068908
  H  H85  1  0.22330375  0.72070858  0.51703834  1 0.075045
  H  H86  1  0.13344085  0.92212174  0.51627166  1 0.091171
  H  H87  1  0.17204269  0.91420060  0.45478563  1 0.085643
  H  H88  1  0.04871575  0.91402628  0.37019028  1 0.09321
  H  H89  1  0.84806127  0.87118133  0.44297431  1 0.083473
  H  H90  1  0.95979109  0.73781068  0.51471523  1 0.103803
  H  H91  1  0.85636356  0.57681149  0.58980779  1 0.093533
  H  H92  1  0.90022684  0.90502543  0.58482594  1 0.085219
  H  H93  1  0.82037301  0.90992688  0.62806743  1 0.090519
  H  H94  1  0.71815507  0.05694618  0.56163123  1 0.089586
  H  H95  1  0.75463268  0.96416778  0.50871087  1 0.090883
  H  H96  1  0.57458288  0.02657260  0.51364576  1 0.089978
  H  H97  1  0.64990023  0.88952330  0.53171325  1 0.095173
  H  H98  1  0.58817221  0.07494320  0.61228250  1 0.079558
  H  H99  1  0.64951212  0.93678391  0.62706485  1 0.09535
  H  H100  1  0.38848474  0.18069949  0.58909077  1 0.083202
  H  H101  1  0.33864426  0.92278740  0.58535392  1 0.074664
  H  H102  1  0.69363450  0.85790220  0.24276832  1 0.081685
  H  H103  1  0.61167634  0.17054985  0.29615534  1 0.076933
  H  H104  1  0.40189785  0.17747343  0.17572220  1 0.095483
  H  H105  1  0.48835940  0.22545148  0.17650663  1 0.078638
  H  H106  1  0.44940047  0.30806791  0.26868205  1 0.065027
  H  H107  1  0.35355664  0.36915873  0.21210885  1 0.097
  H  H108  1  0.85334640  0.01047342  0.20655578  1 0.075002
  H  H109  1  0.02307726  0.73312986  0.30127569  1 0.093929
  H  H110  1  0.03016636  0.63219563  0.17329735  1 0.02272
  H  H111  1  0.12444448  0.66868333  0.16987832  1 0.082859
  H  H112  1  0.12602210  0.56936536  0.27006081  1 0.08062
  H  H113  1  0.18488070  0.49542919  0.21627340  1 0.07581
  H  H114  1  0.38127846  0.64912228  0.13396472  1 0.078668
  H  H115  1  0.25186264  0.56649373  0.98839894  1 0.068126
  H  H116  1  0.12819959  0.53954349  0.09285514  1 0.052109
  H  H117  1  0.11956754  0.53876851  0.02288822  1 0.052756
  H  H118  1  0.01813605  0.73981738  0.09160182  1 0.085566
  H  H119  1  0.95192958  0.67764419  0.05397390  1 0.040671
  H  H120  1  0.92074262  0.77001709  0.97860753  1 0.067777
  H  H121  1  0.05596927  0.72071490  0.98296170  1 0.074577
  H  H122  1  0.94443724  0.92213239  0.98373463  1 0.091408
  H  H123  1  0.91374937  0.91421910  0.04521993  1 0.086081
  H  H124  1  0.03727924  0.91400544  0.12982325  1 0.092677
  H  H125  1  0.28076976  0.87116317  0.05702839  1 0.083997
  H  H126  1  0.30229141  0.73790083  0.98526889  1 0.10333
  H  H127  1  0.56683787  0.57676823  0.91025866  1 0.093569
  H  H128  1  0.19474652  0.90505312  0.91514621  1 0.085044
  H  H129  1  0.26975062  0.90990780  0.87192284  1 0.090269
  H  H130  1  0.22490106  0.05695498  0.93835861  1 0.088439
  H  H131  1  0.28120108  0.96417541  0.99127672  1 0.090391
  H  H132  1  0.39884918  0.02657786  0.98634948  1 0.089777
  H  H133  1  0.46058695  0.88952698  0.96827809  1 0.094645
  H  H134  1  0.33689546  0.07495402  0.88771385  1 0.080161
  H  H135  1  0.41371913  0.93679332  0.87292814  1 0.094542
  H  H136  1  0.43082029  0.18070239  0.91090008  1 0.083752
  H  H137  1  0.73858477  0.92278895  0.91463539  1 0.075859
  H  H138  1  0.44846753  0.85791299  0.25723839  1 0.081291
  H  H139  1  0.21775370  0.17054988  0.20384566  1 0.076303
  H  H140  1  0.42060670  0.17748488  0.32427961  1 0.096477
  H  H141  1  0.28615962  0.22547691  0.32348996  1 0.07903
  H  H142  1  0.24251986  0.30807748  0.23131411  1 0.065839
  H  H143  1  0.27726988  0.36917077  0.28788777  1 0.097155
  H  H144  1  0.13621728  0.01045088  0.29345354  1 0.074923
  H  H145  1  0.24382663  0.73310925  0.19872636  1 0.093734
  H  H146  1  0.33766001  0.63217607  0.32670346  1 0.021081
  H  H147  1  0.20688864  0.66867559  0.33012117  1 0.082129
  H  H148  1  0.30462843  0.56935759  0.22993462  1 0.080678
  H  H149  1  0.31970742  0.49541715  0.28371809  1 0.075616
  C  C150  1  0.96079911  0.37042823  0.60374936  1 0.119941
  C  C151  1  0.85613390  0.41115889  0.52957785  1 0.038308
  C  C152  1  0.70548569  0.41329684  0.55920249  1 -0.064443
  C  C153  1  0.70994786  0.30575575  0.55482804  1 -0.160828
  C  C154  1  0.75275541  0.23906642  0.50590798  1 -0.159696
  C  C155  1  0.84649635  0.12674483  0.51977132  1 -0.076689
  C  C156  1  0.98699487  0.09701951  0.60038304  1 0.040408
  C  C157  1  0.08555429  0.12210558  0.56161096  1 0.113008
  C  C158  1  0.07838644  0.28153306  0.46067109  1 0.05969
  C  C159  1  0.13226959  0.36137360  0.42175504  1 0.11802
  C  C160  1  0.16719904  0.10371099  0.41326034  1 -0.078633
  C  C161  1  0.26486218  0.02429297  0.45144211  1 -0.167288
  C  C162  1  0.36416095  0.03028745  0.45554507  1 -0.17115
  C  C163  1  0.40439664  0.00169295  0.40312619  1 -0.081988
  C  C164  1  0.60203972  0.89844242  0.41145814  1 0.086736
  C  C165  1  0.62392956  0.03012187  0.41336059  1 0.119983
  C  C166  1  0.34795732  0.05543893  0.75377562  1 0.129804
  C  C167  1  0.38837628  0.89733276  0.72558370  1 0.032958
  C  C168  1  0.54719636  0.79731522  0.79778941  1 -0.082597
  C  C169  1  0.60713149  0.70249224  0.76260068  1 -0.161137
  C  C170  1  0.09404853  0.07228196  0.78070407  1 0.117883
  C  C171  1  0.01062379  0.21229001  0.73216158  1 0.038798
  C  C172  1  0.91621374  0.34205195  0.80270881  1 -0.069039
  C  C173  1  0.83670939  0.42871022  0.76195723  1 -0.166437
  C  C174  1  0.66878586  0.37039606  0.89623490  1 0.11798
  C  C175  1  0.73269819  0.41110943  0.97041750  1 0.037475
  C  C176  1  0.88120472  0.41329755  0.94080606  1 -0.065755
  C  C177  1  0.98428808  0.30576778  0.94517708  1 -0.161458
  C  C178  1  0.00818040  0.23906726  0.99409282  1 -0.157566
  C  C179  1  0.02676945  0.12673925  0.98022532  1 -0.078304
  C  C180  1  0.91600750  0.09700154  0.89961414  1 0.042345
  C  C181  1  0.79235966  0.12209663  0.93838974  1 0.110087
  C  C182  1  0.64001237  0.28157988  0.03933967  1 0.061086
  C  C183  1  0.50631372  0.36137628  0.07827862  1 0.115973
  C  C184  1  0.72907180  0.10372755  0.08672709  1 -0.078807
  C  C185  1  0.71082823  0.02430998  0.04854809  1 -0.164611
  C  C186  1  0.60554110  0.03029322  0.04445289  1 -0.170447
  C  C187  1  0.59390748  0.00169559  0.09687122  1 -0.080001
  C  C188  1  0.49953853  0.89843383  0.08853485  1 0.086823
  C  C189  1  0.34595102  0.03010176  0.08663739  1 0.120568
  C  C190  1  0.59661839  0.05543260  0.74622493  1 0.130437
  C  C191  1  0.71431178  0.89732884  0.77441818  1 0.034456
  C  C192  1  0.65551621  0.79731065  0.70220540  1 -0.08519
  C  C193  1  0.69039867  0.70248676  0.73739103  1 -0.162482
  C  C194  1  0.83367490  0.07228462  0.71929832  1 0.117238
  C  C195  1  0.77709396  0.21229543  0.76784144  1 0.039586
  C  C196  1  0.74174387  0.34204691  0.69729180  1 -0.067102
  C  C197  1  0.73457766  0.42871466  0.73804136  1 -0.165437
  C  C198  1  0.03918903  0.62957946  0.39623959  1 0.119821
  C  C199  1  0.14383750  0.58885377  0.47041647  1 0.038328
  C  C200  1  0.29450332  0.58669527  0.44079800  1 -0.064637
  C  C201  1  0.29005440  0.69422957  0.44517649  1 -0.160677
  C  C202  1  0.24724605  0.76092366  0.49409506  1 -0.159785
  C  C203  1  0.15351293  0.87324484  0.48023170  1 -0.076609
  C  C204  1  0.01300946  0.90297758  0.39961772  1 0.040347
  C  C205  1  0.91444595  0.87789853  0.43838927  1 0.113064
  C  C206  1  0.92159261  0.71845629  0.53932217  1 0.059968
  C  C207  1  0.86769816  0.63863421  0.57824226  1 0.117952
  C  C208  1  0.83279099  0.89628721  0.58672943  1 -0.078524
  C  C209  1  0.73513196  0.97571036  0.54855345  1 -0.1673
  C  C210  1  0.63582908  0.96972045  0.54445061  1 -0.170986
  C  C211  1  0.59560167  0.99830207  0.59687104  1 -0.081885
  C  C212  1  0.39795819  0.10156109  0.58853814  1 0.086813
  C  C213  1  0.37606206  0.96988553  0.58663768  1 0.120137
  C  C214  1  0.65205119  0.94455968  0.24622326  1 0.129771
  C  C215  1  0.61163032  0.10266902  0.27441428  1 0.032828
  C  C216  1  0.45280992  0.20267971  0.20220749  1 -0.082547
  C  C217  1  0.39287685  0.29750708  0.23739354  1 -0.161155
  C  C218  1  0.90596285  0.92772228  0.21929988  1 0.117882
  C  C219  1  0.98939131  0.78770636  0.26783904  1 0.038807
  C  C220  1  0.08379862  0.65795583  0.19728994  1 -0.069098
  C  C221  1  0.16329818  0.57128855  0.23803702  1 -0.166462
  C  C222  1  0.33124281  0.62955581  0.10373240  1 0.118108
  C  C223  1  0.26729014  0.58882919  0.02956312  1 0.037756
  C  C224  1  0.11877178  0.58671483  0.05920332  1 -0.065919
  C  C225  1  0.01569478  0.69425143  0.05482863  1 -0.161235
  C  C226  1  0.99181740  0.76093745  0.00591194  1 -0.157341
  C  C227  1  0.97324476  0.87326449  0.01977879  1 -0.078619
  C  C228  1  0.08401662  0.90297545  0.10039021  1 0.042443
  C  C229  1  0.20766178  0.87788987  0.06161498  1 0.110022
  C  C230  1  0.35989476  0.71850391  0.96068548  1 0.060918
  C  C231  1  0.49366697  0.63861793  0.92180285  1 0.116361
  C  C232  1  0.27093542  0.89629299  0.91325661  1 -0.078526
  C  C233  1  0.28916118  0.97572140  0.95143636  1 -0.164456
  C  C234  1  0.39445679  0.96972658  0.95554264  1 -0.170617
  C  C235  1  0.40610843  0.99831018  0.90312463  1 -0.079889
  C  C236  1  0.50048952  0.10156026  0.91145818  1 0.087007
  C  C237  1  0.65406758  0.96988801  0.91335831  1 0.120496
  C  C238  1  0.40339609  0.94456797  0.25377750  1 0.130363
  C  C239  1  0.28570015  0.10267043  0.22557902  1 0.034531
  C  C240  1  0.34448911  0.20269209  0.29779098  1 -0.085121
  C  C241  1  0.30960931  0.29751310  0.26260504  1 -0.162442
  C  C242  1  0.16634794  0.92770274  0.28070388  1 0.117083
  C  C243  1  0.22292893  0.78768896  0.23216174  1 0.039713
  C  C244  1  0.25826738  0.65794436  0.30271005  1 -0.067037
  C  C245  1  0.26543041  0.57127937  0.26195920  1 -0.165287
  N  N246  1  0.95254190  0.39185729  0.55236764  1 -0.347147
  N  N247  1  0.87548420  0.37533757  0.61503718  1 -0.309381
  N  N248  1  0.80854846  0.40143317  0.56636323  1 0.122543
  N  N249  1  0.94060782  0.12513299  0.54888053  1 0.13442
  N  N250  1  0.00307794  0.14113891  0.52332031  1 -0.303123
  N  N251  1  0.07975835  0.09387482  0.60910594  1 -0.304062
  N  N252  1  0.07396194  0.37607628  0.45934480  1 -0.280417
  N  N253  1  0.17244036  0.26455221  0.39987239  1 -0.293329
  N  N254  1  0.13715089  0.21460663  0.42501945  1 0.139324
  N  N255  1  0.50752535  0.98974569  0.40811578  1 0.13505
  N  N256  1  0.52004449  0.07589338  0.40949683  1 -0.288811
  N  N257  1  0.67812518  0.92092119  0.41502663  1 -0.352236
  N  N258  1  0.31412346  0.00121380  0.71608115  1 -0.288997
  N  N259  1  0.43752144  0.99247329  0.78594359  1 -0.260797
  N  N260  1  0.46327564  0.89178591  0.76735137  1 0.133492
  N  N261  1  0.08204409  0.10706557  0.73140735  1 -0.312289
  N  N262  1  0.03460947  0.14871010  0.81248984  1 -0.30925
  N  N263  1  0.98011174  0.23784537  0.78018057  1 0.131953
  N  N264  1  0.65560896  0.39179328  0.94761921  1 -0.346338
  N  N265  1  0.74917655  0.37534045  0.88495585  1 -0.309352
  N  N266  1  0.79000648  0.40142705  0.93363571  1 0.123845
  N  N267  1  0.93427767  0.12512001  0.95111692  1 0.134603
  N  N268  1  0.85580611  0.14112964  0.97667931  1 -0.301253
  N  N269  1  0.82638839  0.09386143  0.89089489  1 -0.305092
  N  N270  1  0.54988971  0.37611909  0.04068731  1 -0.279724
  N  N271  1  0.56298507  0.26453869  0.10014250  1 -0.291419
  N  N272  1  0.64820277  0.21462359  0.07498170  1 0.137451
  N  N273  1  0.50272571  0.98972844  0.09188040  1 0.134488
  N  N274  1  0.40405817  0.07588524  0.09050081  1 -0.291124
  N  N275  1  0.40096285  0.92090217  0.08496699  1 -0.353522
  N  N276  1  0.68467190  0.00121215  0.78392207  1 -0.288913
  N  N277  1  0.57003057  0.99246423  0.71405405  1 -0.260412
  N  N278  1  0.64496827  0.89177808  0.73264603  1 0.133134
  N  N279  1  0.81089809  0.10707263  0.76859526  1 -0.312592
  N  N280  1  0.81669122  0.14870853  0.68751334  1 -0.308411
  N  N281  1  0.78205387  0.23784413  0.71982256  1 0.130734
  N  N282  1  0.04743286  0.60815881  0.44762200  1 -0.347331
  N  N283  1  0.12451119  0.62466099  0.38495812  1 -0.309432
  N  N284  1  0.19143611  0.59856769  0.43363416  1 0.122944
  N  N285  1  0.05939742  0.87486198  0.45112154  1 0.134449
  N  N286  1  0.99692088  0.85886337  0.47668030  1 -0.30309
  N  N287  1  0.92024559  0.90612654  0.39089489  1 -0.303963
  N  N288  1  0.92600746  0.62392266  0.54065203  1 -0.280318
  N  N289  1  0.82753456  0.73545715  0.60012236  1 -0.293373
  N  N290  1  0.86282984  0.78539401  0.57497349  1 0.139045
  N  N291  1  0.49247088  0.01025387  0.59188249  1 0.134858
  N  N292  1  0.47994700  0.92411117  0.59050184  1 -0.288771
  N  N293  1  0.32186922  0.07908758  0.58497012  1 -0.352301
  N  N294  1  0.68588830  0.99878489  0.28391811  1 -0.288937
  N  N295  1  0.56248893  0.00752282  0.21405616  1 -0.260801
  N  N296  1  0.53673212  0.10821353  0.23264846  1 0.133567
  N  N297  1  0.91796872  0.89292761  0.26859770  1 -0.312255
  N  N298  1  0.96540346  0.85129977  0.18751516  1 -0.309075
  N  N299  1  0.01990385  0.76215939  0.21982162  1 0.131928
  N  N300  1  0.34440412  0.60811632  0.05234753  1 -0.345936
  N  N301  1  0.25083355  0.62466459  0.11502649  1 -0.309619
  N  N302  1  0.20997502  0.59857171  0.06635553  1 0.123689
  N  N303  1  0.06574600  0.87486483  0.04888749  1 0.134546
  N  N304  1  0.14421326  0.85886092  0.02332479  1 -0.301034
  N  N305  1  0.17363416  0.90611840  0.10911082  1 -0.305113
  N  N306  1  0.45001857  0.62395407  0.95938342  1 -0.279788
  N  N307  1  0.43704007  0.73542469  0.89990719  1 -0.291893
  N  N308  1  0.35176982  0.78540281  0.92503037  1 0.137641
  N  N309  1  0.49728953  0.01025955  0.90811545  1 0.134446
  N  N310  1  0.59595994  0.92411240  0.90949685  1 -0.291115
  N  N311  1  0.59905684  0.07909057  0.91502529  1 -0.353632
  N  N312  1  0.31534035  0.99878485  0.21607806  1 -0.288918
  N  N313  1  0.42997747  0.00753820  0.28594674  1 -0.260398
  N  N314  1  0.35503889  0.10822496  0.26735046  1 0.133086
  N  N315  1  0.18913019  0.89290936  0.23140626  1 -0.312468
  N  N316  1  0.18332691  0.85128243  0.31248805  1 -0.308213
  N  N317  1  0.21796443  0.76214423  0.28017960  1 0.130455
