# generated using pymatgen
data_CoH9C13O4
_symmetry_space_group_name_H-M   'P 1'
_cell_length_a   15.12012395
_cell_length_b   10.58790156
_cell_length_c   28.05773940
_cell_angle_alpha   90.02909886
_cell_angle_beta   89.99963228
_cell_angle_gamma   89.99967860
_symmetry_Int_Tables_number   1
_chemical_formula_structural   CoH9C13O4
_chemical_formula_sum   'Co8 H72 C104 O32'
_cell_volume   4491.77369038
_cell_formula_units_Z   8
loop_
 _symmetry_equiv_pos_site_id
 _symmetry_equiv_pos_as_xyz
  1  'x, y, z'
loop_
 _atom_site_type_symbol
 _atom_site_label
 _atom_site_symmetry_multiplicity
 _atom_site_fract_x
 _atom_site_fract_y
 _atom_site_fract_z
 _atom_site_occupancy
 _atom_site_charge
  Co  Co0  1  0.74999880  0.17408253  0.27816602  1 0.681223
  Co  Co1  1  0.25000067  0.67421687  0.77804780  1 0.680095
  Co  Co2  1  0.75000194  0.17511139  0.72236124  1 0.682719
  Co  Co3  1  0.24999927  0.67440970  0.22180199  1 0.679964
  Co  Co4  1  0.25000031  0.82578507  0.72195030  1 0.680108
  Co  Co5  1  0.74999971  0.32586728  0.22184008  1 0.681491
  Co  Co6  1  0.24999720  0.82561915  0.27820699  1 0.679743
  Co  Co7  1  0.74999951  0.32489595  0.77763650  1 0.682625
  H  H8  1  0.61101433  0.37169516  0.39068906  1 0.120862
  H  H9  1  0.32929342  0.32372306  0.45116031  1 0.12015
  H  H10  1  0.41268969  0.21141210  0.46256852  1 0.123931
  H  H11  1  0.41725290  0.30441552  0.41008125  1 0.127579
  H  H12  1  0.11072448  0.87236307  0.89109981  1 0.120988
  H  H13  1  0.82939024  0.82354798  0.95091744  1 0.120474
  H  H14  1  0.91302393  0.71167530  0.96260903  1 0.124039
  H  H15  1  0.91809221  0.80516935  0.91028144  1 0.126775
  H  H16  1  0.88867850  0.37230581  0.60883646  1 0.120546
  H  H17  1  0.17042843  0.32376567  0.54891191  1 0.120411
  H  H18  1  0.08707240  0.21137361  0.53731928  1 0.123863
  H  H19  1  0.08195725  0.30497248  0.58966355  1 0.126675
  H  H20  1  0.38924597  0.87242638  0.10934724  1 0.119822
  H  H21  1  0.67057219  0.82272355  0.04894771  1 0.120454
  H  H22  1  0.58659814  0.71151627  0.03718591  1 0.124129
  H  H23  1  0.58219919  0.80410529  0.08981441  1 0.127578
  H  H24  1  0.11073318  0.62762950  0.60889715  1 0.120927
  H  H25  1  0.82938715  0.67647770  0.54908384  1 0.120437
  H  H26  1  0.91302870  0.78833399  0.53738800  1 0.124132
  H  H27  1  0.91809364  0.69484502  0.58971702  1 0.126705
  H  H28  1  0.61099693  0.12833724  0.10932618  1 0.120936
  H  H29  1  0.32928387  0.17628392  0.04883602  1 0.120117
  H  H30  1  0.41268164  0.28858959  0.03742753  1 0.123925
  H  H31  1  0.41723944  0.19559307  0.08991692  1 0.127478
  H  H32  1  0.38921981  0.62751891  0.39065686  1 0.119823
  H  H33  1  0.67058035  0.67728543  0.45104641  1 0.120466
  H  H34  1  0.58659927  0.78848347  0.46280773  1 0.124048
  H  H35  1  0.58220474  0.69588858  0.41018081  1 0.127277
  H  H36  1  0.88868563  0.12772087  0.89116172  1 0.122106
  H  H37  1  0.17042600  0.17625529  0.95108411  1 0.120275
  H  H38  1  0.08706366  0.28863580  0.96268187  1 0.123838
  H  H39  1  0.08194820  0.19504024  0.91033732  1 0.126602
  H  H40  1  0.38926877  0.62762757  0.60889566  1 0.120972
  H  H41  1  0.67061551  0.67647586  0.54908224  1 0.120448
  H  H42  1  0.58697334  0.78833110  0.53738489  1 0.124157
  H  H43  1  0.58190757  0.69484658  0.58971512  1 0.126635
  H  H44  1  0.88900214  0.12833871  0.10932654  1 0.120971
  H  H45  1  0.17071376  0.17628011  0.04883614  1 0.120096
  H  H46  1  0.08731659  0.28858887  0.03742869  1 0.123907
  H  H47  1  0.08275799  0.19559027  0.08991760  1 0.127502
  H  H48  1  0.11077823  0.62751420  0.39065499  1 0.119908
  H  H49  1  0.82941938  0.67727996  0.45104969  1 0.120444
  H  H50  1  0.91339726  0.78848197  0.46280909  1 0.124063
  H  H51  1  0.91779237  0.69588679  0.41018221  1 0.127274
  H  H52  1  0.61131268  0.12771793  0.89116063  1 0.122129
  H  H53  1  0.32957341  0.17625804  0.95108314  1 0.120211
  H  H54  1  0.41293728  0.28863506  0.96268014  1 0.123823
  H  H55  1  0.41805258  0.19503642  0.91033636  1 0.126625
  H  H56  1  0.88898572  0.37169042  0.39069115  1 0.120816
  H  H57  1  0.17071040  0.32371670  0.45116119  1 0.120141
  H  H58  1  0.08731335  0.21140934  0.46257047  1 0.123876
  H  H59  1  0.08275143  0.30440998  0.41008251  1 0.127525
  H  H60  1  0.38927615  0.87236003  0.89109874  1 0.12096
  H  H61  1  0.67060979  0.82354667  0.95091647  1 0.120452
  H  H62  1  0.58697816  0.71167126  0.96260700  1 0.124031
  H  H63  1  0.58190929  0.80516862  0.91028036  1 0.12676
  H  H64  1  0.61132620  0.37230448  0.60883516  1 0.120519
  H  H65  1  0.32957528  0.32376747  0.54891005  1 0.120436
  H  H66  1  0.41293064  0.21137339  0.53731650  1 0.123884
  H  H67  1  0.41804491  0.30496785  0.58966193  1 0.126643
  H  H68  1  0.11075223  0.87242262  0.10934605  1 0.119784
  H  H69  1  0.82942751  0.82272325  0.04894918  1 0.120466
  H  H70  1  0.91340412  0.71151839  0.03718647  1 0.124169
  H  H71  1  0.91780144  0.80410735  0.08981498  1 0.127586
  H  H72  1  0.50067559  0.50008394  0.25774339  1 0.12933
  H  H73  1  0.99966852  0.00025895  0.75818229  1 0.128898
  H  H74  1  0.99967603  0.49973794  0.74181576  1 0.128917
  H  H75  1  0.50065586  0.99989684  0.24226297  1 0.129262
  H  H76  1  0.50032665  0.49974045  0.74181424  1 0.128847
  H  H77  1  0.99934359  0.99989771  0.24226255  1 0.129286
  H  H78  1  0.99931800  0.50008118  0.25774349  1 0.129366
  H  H79  1  0.50033191  0.00025905  0.75818110  1 0.128928
  C  C80  1  0.56379490  0.43149223  0.32179347  1 -0.017075
  C  C81  1  0.63343244  0.36259715  0.29538682  1 0.556926
  C  C82  1  0.56236959  0.42859870  0.37168820  1 -0.134983
  C  C83  1  0.45297435  0.40528068  0.47470977  1 0.059559
  C  C84  1  0.40096410  0.30635643  0.44809246  1 -0.394829
  C  C85  1  0.06344517  0.93168575  0.82210240  1 -0.017305
  C  C86  1  0.13315634  0.86272078  0.79557471  1 0.558699
  C  C87  1  0.06207257  0.92907917  0.87202166  1 -0.134433
  C  C88  1  0.95263210  0.90575271  0.97503373  1 0.059057
  C  C89  1  0.90116331  0.80666164  0.94820786  1 -0.394799
  C  C90  1  0.93612320  0.43142423  0.67783795  1 -0.018203
  C  C91  1  0.86659091  0.36239893  0.70434397  1 0.557128
  C  C92  1  0.93744658  0.42884403  0.62793397  1 -0.134289
  C  C93  1  0.04697253  0.40529389  0.52494322  1 0.058446
  C  C94  1  0.09871440  0.30646880  0.55171493  1 -0.394247
  C  C95  1  0.43661031  0.93184367  0.17829404  1 -0.017529
  C  C96  1  0.36684019  0.86300354  0.20471961  1 0.557282
  C  C97  1  0.43795245  0.92920139  0.12837004  1 -0.133956
  C  C98  1  0.54733716  0.90571428  0.02526533  1 0.059588
  C  C99  1  0.59878354  0.80619597  0.05184220  1 -0.395258
  C  C100  1  0.06345092  0.56831205  0.67789571  1 -0.017231
  C  C101  1  0.13316014  0.63727734  0.70442352  1 0.55862
  C  C102  1  0.06207814  0.57092088  0.62797559  1 -0.134524
  C  C103  1  0.95262529  0.59425224  0.52496552  1 0.058947
  C  C104  1  0.90116182  0.69335132  0.55179108  1 -0.394756
  C  C105  1  0.56379278  0.06848483  0.17821294  1 -0.017114
  C  C106  1  0.63343844  0.13735739  0.20461783  1 0.557422
  C  C107  1  0.56235749  0.07140012  0.12831908  1 -0.13501
  C  C108  1  0.45296613  0.09471972  0.02528990  1 0.059747
  C  C109  1  0.40095450  0.19364763  0.05190542  1 -0.394689
  C  C110  1  0.43661580  0.56815723  0.32170882  1 -0.017302
  C  C111  1  0.36685340  0.63702521  0.29528541  1 0.5572
  C  C112  1  0.43794599  0.57077495  0.37163349  1 -0.133963
  C  C113  1  0.54734864  0.59428414  0.47473238  1 0.059513
  C  C114  1  0.59879037  0.69380336  0.44815287  1 -0.39492
  C  C115  1  0.93612154  0.06858473  0.82216089  1 -0.018383
  C  C116  1  0.86659034  0.13761189  0.79565405  1 0.557143
  C  C117  1  0.93744934  0.07117227  0.87206409  1 -0.135437
  C  C118  1  0.04697492  0.09471071  0.97505730  1 0.058304
  C  C119  1  0.09871031  0.19354293  0.94828519  1 -0.393928
  C  C120  1  0.43655114  0.56831196  0.67789429  1 -0.017219
  C  C121  1  0.36684101  0.63727759  0.70442230  1 0.558406
  C  C122  1  0.43792416  0.57091953  0.62797418  1 -0.134452
  C  C123  1  0.54737846  0.59425030  0.52496435  1 0.058982
  C  C124  1  0.59884063  0.69334998  0.55178926  1 -0.394743
  C  C125  1  0.93620834  0.06848893  0.17821321  1 -0.017204
  C  C126  1  0.86656432  0.13736356  0.20461867  1 0.557376
  C  C127  1  0.93764216  0.07140185  0.12831948  1 -0.135016
  C  C128  1  0.04703180  0.09472081  0.02529037  1 0.059779
  C  C129  1  0.09904344  0.19364627  0.05190609  1 -0.394688
  C  C130  1  0.06338174  0.56815006  0.32170802  1 -0.017301
  C  C131  1  0.13314489  0.63701638  0.29528449  1 0.557015
  C  C132  1  0.06205222  0.57076887  0.37163256  1 -0.134048
  C  C133  1  0.95265369  0.59428378  0.47473349  1 0.059519
  C  C134  1  0.90120878  0.69380106  0.44815465  1 -0.394894
  C  C135  1  0.56387818  0.06858313  0.82215978  1 -0.01827
  C  C136  1  0.63340919  0.13761140  0.79565296  1 0.55725
  C  C137  1  0.56254972  0.07116941  0.87206294  1 -0.135509
  C  C138  1  0.45302341  0.09470861  0.97505669  1 0.05827
  C  C139  1  0.40128952  0.19354182  0.94828426  1 -0.393842
  C  C140  1  0.93619939  0.43149209  0.32179473  1 -0.017082
  C  C141  1  0.86655900  0.36260148  0.29538882  1 0.557009
  C  C142  1  0.93762860  0.42859553  0.37168957  1 -0.134875
  C  C143  1  0.04702921  0.40527958  0.47471067  1 0.059625
  C  C144  1  0.09903947  0.30635274  0.44809370  1 -0.394721
  C  C145  1  0.43655548  0.93168432  0.82210134  1 -0.017399
  C  C146  1  0.36684455  0.86272026  0.79557380  1 0.558867
  C  C147  1  0.43792792  0.92907665  0.87202051  1 -0.13444
  C  C148  1  0.54736617  0.90574908  0.97503314  1 0.059116
  C  C149  1  0.59883709  0.80665902  0.94820687  1 -0.394718
  C  C150  1  0.56387991  0.43142413  0.67783652  1 -0.018226
  C  C151  1  0.63341213  0.36239923  0.70434270  1 0.5572
  C  C152  1  0.56255722  0.42884265  0.62793259  1 -0.134312
  C  C153  1  0.45303203  0.40529305  0.52494225  1 0.058371
  C  C154  1  0.40128908  0.30646787  0.55171329  1 -0.394214
  C  C155  1  0.06338707  0.93183991  0.17829327  1 -0.017291
  C  C156  1  0.13315509  0.86299626  0.20471903  1 0.557162
  C  C157  1  0.06204612  0.92919834  0.12836918  1 -0.133921
  C  C158  1  0.95266111  0.90571672  0.02526584  1 0.059628
  C  C159  1  0.90121647  0.80619744  0.05184299  1 -0.395313
  C  C160  1  0.50034436  0.49994734  0.29653802  1 -0.10842
  C  C161  1  0.50014758  0.49973165  0.39703833  1 0.094468
  C  C162  1  0.50017010  0.49975747  0.45017984  1 -0.06695
  C  C163  1  0.99977291  0.00016493  0.79697026  1 -0.107506
  C  C164  1  0.99977963  0.00016586  0.89738641  1 0.094192
  C  C165  1  0.99978113  0.00024052  0.95052942  1 -0.069812
  C  C166  1  0.99977809  0.49983573  0.70302715  1 -0.107568
  C  C167  1  0.99977943  0.49984443  0.60261241  1 0.094388
  C  C168  1  0.99977756  0.49976752  0.54946977  1 -0.069609
  C  C169  1  0.50033571  0.00003825  0.20346887  1 -0.108433
  C  C170  1  0.50014656  0.00026534  0.10296357  1 0.094661
  C  C171  1  0.50016311  0.00024288  0.04982060  1 -0.067305
  C  C172  1  0.50022437  0.49983655  0.70302563  1 -0.107411
  C  C173  1  0.50022398  0.49984246  0.60261115  1 0.094307
  C  C174  1  0.50022674  0.49976543  0.54946855  1 -0.069597
  C  C175  1  0.99966384  0.00003884  0.20346848  1 -0.108541
  C  C176  1  0.99985211  0.00026498  0.10296359  1 0.09466
  C  C177  1  0.99983494  0.00024386  0.04982094  1 -0.067312
  C  C178  1  0.99965083  0.49994417  0.29653809  1 -0.108479
  C  C179  1  0.99985189  0.49972692  0.39703889  1 0.09439
  C  C180  1  0.99983168  0.49975512  0.45018068  1 -0.066949
  C  C181  1  0.50022747  0.00016408  0.79696898  1 -0.107607
  C  C182  1  0.50021969  0.00016250  0.89738547  1 0.094276
  C  C183  1  0.50021714  0.00023690  0.95052850  1 -0.069872
  O  O184  1  0.66254368  0.25952151  0.31353260  1 -0.462507
  O  O185  1  0.66042910  0.41110318  0.25613101  1 -0.463708
  O  O186  1  0.16239967  0.75952544  0.81358052  1 -0.463075
  O  O187  1  0.16023497  0.91117538  0.75631684  1 -0.464286
  O  O188  1  0.83733428  0.25907649  0.68646334  1 -0.462355
  O  O189  1  0.83945151  0.41072353  0.74362021  1 -0.46282
  O  O190  1  0.33751727  0.76009613  0.18649037  1 -0.461462
  O  O191  1  0.33981421  0.91123200  0.24404404  1 -0.464147
  O  O192  1  0.16240098  0.74047469  0.68641799  1 -0.463064
  O  O193  1  0.16023712  0.58882493  0.74368182  1 -0.464249
  O  O194  1  0.66255256  0.24042413  0.18647215  1 -0.462794
  O  O195  1  0.66043891  0.08884015  0.24387259  1 -0.463933
  O  O196  1  0.33753189  0.73993530  0.31351730  1 -0.461452
  O  O197  1  0.33982365  0.58880732  0.25596143  1 -0.464238
  O  O198  1  0.83733110  0.24093401  0.81353451  1 -0.462385
  O  O199  1  0.83945332  0.08928757  0.75637758  1 -0.462868
  O  O200  1  0.33760149  0.74047754  0.68641754  1 -0.462968
  O  O201  1  0.33976220  0.58882329  0.74367993  1 -0.464195
  O  O202  1  0.83744851  0.24042933  0.18647272  1 -0.462729
  O  O203  1  0.83956584  0.08884864  0.24387453  1 -0.463849
  O  O204  1  0.16246323  0.73992902  0.31351593  1 -0.461359
  O  O205  1  0.16017854  0.58879725  0.25596144  1 -0.464135
  O  O206  1  0.66266551  0.24093415  0.81353343  1 -0.462507
  O  O207  1  0.66054893  0.08928739  0.75637671  1 -0.462893
  O  O208  1  0.83744515  0.25952866  0.31353489  1 -0.462594
  O  O209  1  0.83956369  0.41110808  0.25613290  1 -0.463752
  O  O210  1  0.33760326  0.75952333  0.81357924  1 -0.463142
  O  O211  1  0.33976412  0.91117684  0.75631676  1 -0.464317
  O  O212  1  0.66267136  0.25907728  0.68646209  1 -0.462412
  O  O213  1  0.66054872  0.41072346  0.74361927  1 -0.462847
  O  O214  1  0.16247520  0.76008504  0.18649119  1 -0.461378
  O  O215  1  0.16018233  0.91122817  0.24404232  1 -0.464232
