# generated using pymatgen
data_CuH9C14NO4
_symmetry_space_group_name_H-M   'P 1'
_cell_length_a   10.90937599
_cell_length_b   10.94395855
_cell_length_c   16.27051053
_cell_angle_alpha   90.14081850
_cell_angle_beta   97.32446299
_cell_angle_gamma   90.13848004
_symmetry_Int_Tables_number   1
_chemical_formula_structural   CuH9C14NO4
_chemical_formula_sum   'Cu4 H36 C56 N4 O16'
_cell_volume   1926.70061407
_cell_formula_units_Z   4
loop_
 _symmetry_equiv_pos_site_id
 _symmetry_equiv_pos_as_xyz
  1  'x, y, z'
loop_
 _atom_site_type_symbol
 _atom_site_label
 _atom_site_symmetry_multiplicity
 _atom_site_fract_x
 _atom_site_fract_y
 _atom_site_fract_z
 _atom_site_occupancy
 _atom_site_charge
  Cu  Cu0  1  0.31589891  0.83930256  0.77562952  1 0.76657
  Cu  Cu1  1  0.28433182  0.83884232  0.61425047  1 0.766306
  Cu  Cu2  1  0.68406838  0.16063978  0.22435885  1 0.767712
  Cu  Cu3  1  0.71569915  0.16119162  0.38564021  1 0.769686
  H  H4  1  0.51173460  0.88703785  0.92738608  1 0.086864
  H  H5  1  0.52675303  0.89075318  0.08259713  1 0.119443
  H  H6  1  0.15245898  0.75084565  0.05672616  1 0.113389
  H  H7  1  0.15331226  0.75762209  0.90385260  1 0.095417
  H  H8  1  0.65797935  0.83792295  0.56239983  1 0.107472
  H  H9  1  0.88713252  0.83562913  0.56048447  1 0.112076
  H  H10  1  0.71260612  0.84589474  0.82823147  1 0.109462
  H  H11  1  0.94253178  0.84488844  0.82644773  1 0.107462
  H  H12  1  0.27364898  0.22176792  0.56446299  1 0.109472
  H  H13  1  0.15657746  0.80814186  0.18431851  1 0.099222
  H  H14  1  0.32058718  0.45753095  0.82809086  1 0.116528
  H  H15  1  0.31744238  0.22882585  0.83055085  1 0.106542
  H  H16  1  0.45870110  0.84226998  0.33314897  1 0.11026
  H  H17  1  0.43854944  0.85125988  0.20550720  1 0.107609
  H  H18  1  0.27557916  0.45047632  0.56200704  1 0.120942
  H  H19  1  0.07754641  0.82959691  0.46408265  1 0.093536
  H  H20  1  0.05897671  0.81937269  0.30944579  1 0.116294
  H  H21  1  0.45827989  0.85297847  0.48492100  1 0.092012
  H  H22  1  0.48827279  0.11296889  0.07260462  1 0.086418
  H  H23  1  0.47323986  0.10924914  0.91739151  1 0.119518
  H  H24  1  0.84754406  0.24915547  0.94326566  1 0.113265
  H  H25  1  0.84667648  0.24237829  0.09613395  1 0.095411
  H  H26  1  0.34201628  0.16207799  0.43760534  1 0.107607
  H  H27  1  0.11287478  0.16437120  0.43952051  1 0.112187
  H  H28  1  0.28738870  0.15410711  0.17176632  1 0.109514
  H  H29  1  0.05747275  0.15511435  0.17354936  1 0.107525
  H  H30  1  0.72635160  0.77822613  0.43554336  1 0.109606
  H  H31  1  0.84342362  0.19185760  0.81568113  1 0.099217
  H  H32  1  0.67941300  0.54247477  0.17190558  1 0.116641
  H  H33  1  0.68255875  0.77116781  0.16944642  1 0.106644
  H  H34  1  0.54129447  0.15772947  0.66685694  1 0.110484
  H  H35  1  0.56144715  0.14873936  0.79449279  1 0.107692
  H  H36  1  0.72442131  0.54952885  0.43799820  1 0.121097
  H  H37  1  0.92244772  0.17040095  0.53593236  1 0.093273
  H  H38  1  0.94102888  0.18062642  0.69056025  1 0.116327
  H  H39  1  0.54173206  0.14702140  0.51509861  1 0.0917
  C  C40  1  0.43420397  0.85864588  0.95910757  1 0.096636
  C  C41  1  0.44228473  0.85967817  0.04511158  1 -0.187946
  C  C42  1  0.33948830  0.82425621  0.08360809  1 0.148639
  C  C43  1  0.23404210  0.78408616  0.03135660  1 -0.184399
  C  C44  1  0.23394001  0.78641401  0.94615258  1 0.092241
  C  C45  1  0.72089550  0.83837111  0.61996142  1 -0.091559
  C  C46  1  0.67218734  0.84090623  0.69556277  1 -0.017504
  C  C47  1  0.84812415  0.83731925  0.61883366  1 -0.093585
  C  C48  1  0.29997114  0.60442735  0.69403574  1 0.575363
  C  C49  1  0.29836752  0.46732917  0.69498692  1 -0.010493
  C  C50  1  0.75200125  0.84321791  0.77005653  1 -0.095335
  C  C51  1  0.92800268  0.83922631  0.69340247  1 -0.018782
  C  C52  1  0.87930496  0.84255591  0.76898619  1 -0.099426
  C  C53  1  0.06501107  0.83843055  0.69250966  1 0.575318
  C  C54  1  0.28361460  0.27412617  0.62190010  1 -0.100103
  C  C55  1  0.29588142  0.21151514  0.69753841  1 -0.032059
  C  C56  1  0.24955385  0.82211781  0.21698151  1 -0.11174
  C  C57  1  0.31009415  0.40500028  0.77068364  1 -0.094009
  C  C58  1  0.29750328  0.07449909  0.69833245  1 0.566524
  C  C59  1  0.53532224  0.84170445  0.69697376  1 0.572764
  C  C60  1  0.30865613  0.27784198  0.77195176  1 -0.107865
  C  C61  1  0.37096975  0.84027985  0.35833879  1 -0.164224
  C  C62  1  0.34642356  0.83199387  0.17325464  1 -0.116883
  C  C63  1  0.28483731  0.40125337  0.62053145  1 -0.088493
  C  C64  1  0.15929779  0.83264229  0.43188127  1 0.101679
  C  C65  1  0.14989694  0.82686391  0.34585769  1 -0.177809
  C  C66  1  0.25765045  0.83023571  0.30676317  1 0.143097
  C  C67  1  0.37193610  0.84577381  0.44340578  1 0.098012
  C  C68  1  0.56581473  0.14136352  0.04086010  1 0.097156
  C  C69  1  0.55770048  0.14031129  0.95487258  1 -0.188012
  C  C70  1  0.66051196  0.17574362  0.91638937  1 0.148694
  C  C71  1  0.76596999  0.21591924  0.96862974  1 -0.184025
  C  C72  1  0.76603709  0.21358225  0.05381198  1 0.091797
  C  C73  1  0.27911527  0.16162843  0.38003880  1 -0.091426
  C  C74  1  0.32784253  0.15908985  0.30443243  1 -0.01762
  C  C75  1  0.15186578  0.16268145  0.38116685  1 -0.093269
  C  C76  1  0.70002821  0.39551732  0.30597172  1 0.574483
  C  C77  1  0.70162903  0.53263458  0.30501135  1 -0.010035
  C  C78  1  0.24799416  0.15678439  0.22993560  1 -0.095052
  C  C79  1  0.07196586  0.16077481  0.30659441  1 -0.01866
  C  C80  1  0.12069596  0.15744484  0.23100551  1 -0.099377
  C  C81  1  0.93494085  0.16157169  0.30749718  1 0.575128
  C  C82  1  0.71638564  0.72588425  0.37810216  1 -0.099936
  C  C83  1  0.70411984  0.78851948  0.30245929  1 -0.032341
  C  C84  1  0.75044591  0.17788180  0.78301951  1 -0.11172
  C  C85  1  0.68990436  0.59500154  0.22930803  1 -0.093927
  C  C86  1  0.70250350  0.92555132  0.30168685  1 0.566696
  C  C87  1  0.46473320  0.15829414  0.30304785  1 0.573142
  C  C88  1  0.69134068  0.72215576  0.22804046  1 -0.107505
  C  C89  1  0.62901243  0.15972185  0.64167650  1 -0.164254
  C  C90  1  0.65357289  0.16800583  0.82674307  1 -0.117069
  C  C91  1  0.71516373  0.59873643  0.37946975  1 -0.08833
  C  C92  1  0.84069784  0.16735597  0.56815733  1 0.101853
  C  C93  1  0.85012132  0.17313902  0.65415978  1 -0.177909
  C  C94  1  0.74234898  0.16976358  0.69323371  1 0.143347
  C  C95  1  0.62807538  0.15422583  0.55663495  1 0.0979
  N  N96  1  0.26827139  0.84161917  0.48037843  1 -0.237625
  N  N97  1  0.33150789  0.82480325  0.90986850  1 -0.235737
  N  N98  1  0.73173926  0.15836549  0.51968865  1 -0.237967
  N  N99  1  0.66848137  0.17522124  0.09007661  1 -0.235943
  O  O100  1  0.10342706  0.83419965  0.62190523  1 -0.510709
  O  O101  1  0.31124279  0.65738969  0.76441272  1 -0.522499
  O  O102  1  0.28976723  0.65557986  0.62345067  1 -0.511997
  O  O103  1  0.31747475  0.02300474  0.76904660  1 -0.53029
  O  O104  1  0.13147916  0.84240810  0.76281658  1 -0.527995
  O  O105  1  0.28034284  0.02175951  0.62806159  1 -0.521531
  O  O106  1  0.49716952  0.84099601  0.76781327  1 -0.517399
  O  O107  1  0.46842261  0.84314014  0.62690316  1 -0.520587
  O  O108  1  0.89633009  0.16579193  0.37810354  1 -0.511312
  O  O109  1  0.68875230  0.34245082  0.23559218  1 -0.5225
  O  O110  1  0.71024825  0.34410660  0.37655978  1 -0.512045
  O  O111  1  0.68253538  0.97717057  0.23096494  1 -0.530645
  O  O112  1  0.86839943  0.15759302  0.23718839  1 -0.527984
  O  O113  1  0.71964002  0.97853038  0.37195115  1 -0.522164
  O  O114  1  0.50296866  0.15901106  0.23219478  1 -0.517797
  O  O115  1  0.53180024  0.15687646  0.37310690  1 -0.521462
