# generated using pymatgen
data_Cu3H28C40N8Cl
_symmetry_space_group_name_H-M   'P 1'
_cell_length_a   19.55382944
_cell_length_b   17.42860250
_cell_length_c   22.03658370
_cell_angle_alpha   90.00000000
_cell_angle_beta   110.19553205
_cell_angle_gamma   90.00000000
_symmetry_Int_Tables_number   1
_chemical_formula_structural   Cu3H28C40N8Cl
_chemical_formula_sum   'Cu12 H112 C160 N32 Cl4'
_cell_volume   7048.26398865
_cell_formula_units_Z   4
loop_
 _symmetry_equiv_pos_site_id
 _symmetry_equiv_pos_as_xyz
  1  'x, y, z'
loop_
 _atom_site_type_symbol
 _atom_site_label
 _atom_site_symmetry_multiplicity
 _atom_site_fract_x
 _atom_site_fract_y
 _atom_site_fract_z
 _atom_site_occupancy
 _atom_site_charge
  Cu  Cu0  1  0.13454685  0.82202668  0.33466920  1 0.308206
  Cu  Cu1  1  0.63454685  0.32202668  0.33466920  1 0.308206
  Cu  Cu2  1  0.86545315  0.82202668  0.16533080  1 0.308206
  Cu  Cu3  1  0.36545315  0.32202668  0.16533080  1 0.308206
  Cu  Cu4  1  -0.00000000  0.03425448  0.75000000  1 0.33046
  Cu  Cu5  1  0.50000000  0.53425448  0.75000000  1 0.33046
  Cu  Cu6  1  0.86545315  0.17797332  0.66533080  1 0.308206
  Cu  Cu7  1  0.36545315  0.67797332  0.66533080  1 0.308206
  Cu  Cu8  1  0.13454685  0.17797332  0.83466920  1 0.308206
  Cu  Cu9  1  0.63454685  0.67797332  0.83466920  1 0.308206
  Cu  Cu10  1  -0.00000000  0.96574552  0.25000000  1 0.33046
  Cu  Cu11  1  0.50000000  0.46574552  0.25000000  1 0.33046
  H  H12  1  0.17132599  0.65398553  0.16377348  1 0.112194
  H  H13  1  0.26583534  0.33452144  0.24293404  1 0.070605
  H  H14  1  0.12061627  0.76471602  0.20833232  1 0.076508
  H  H15  1  0.10287606  0.07591308  0.68926055  1 0.083779
  H  H16  1  0.18784731  0.66793338  0.39107554  1 0.077089
  H  H17  1  0.13912731  0.03035760  0.59924552  1 0.108523
  H  H18  1  0.23102507  0.54860338  0.35095265  1 0.097218
  H  H19  1  0.01171584  0.80032668  0.38009484  1 0.085951
  H  H20  1  0.94444519  0.90752391  0.65723884  1 0.090587
  H  H21  1  0.97574979  0.84797111  0.47042965  1 0.111529
  H  H22  1  0.21410624  0.90425204  0.45386638  1 0.090374
  H  H23  1  0.97277104  0.85507534  0.56474713  1 0.116104
  H  H24  1  0.18653923  0.95796817  0.54639144  1 0.111737
  H  H25  1  0.34413903  0.48836834  0.13932054  1 0.055282
  H  H26  1  0.67132599  0.15398553  0.16377348  1 0.112194
  H  H27  1  0.76583534  0.83452144  0.24293404  1 0.070605
  H  H28  1  0.62061627  0.26471602  0.20833232  1 0.076508
  H  H29  1  0.60287606  0.57591308  0.68926055  1 0.083779
  H  H30  1  0.68784731  0.16793338  0.39107554  1 0.077089
  H  H31  1  0.63912731  0.53035760  0.59924552  1 0.108523
  H  H32  1  0.73102507  0.04860338  0.35095265  1 0.097218
  H  H33  1  0.51171584  0.30032668  0.38009484  1 0.085951
  H  H34  1  0.44444519  0.40752391  0.65723884  1 0.090587
  H  H35  1  0.47574979  0.34797111  0.47042965  1 0.111529
  H  H36  1  0.71410624  0.40425204  0.45386638  1 0.090374
  H  H37  1  0.47277104  0.35507534  0.56474713  1 0.116104
  H  H38  1  0.68653923  0.45796817  0.54639144  1 0.111737
  H  H39  1  0.84413903  0.98836834  0.13932054  1 0.055282
  H  H40  1  0.82867401  0.65398553  0.33622652  1 0.112194
  H  H41  1  0.73416466  0.33452144  0.25706596  1 0.070605
  H  H42  1  0.87938373  0.76471602  0.29166768  1 0.076508
  H  H43  1  0.89712394  0.07591308  0.81073945  1 0.083779
  H  H44  1  0.81215269  0.66793338  0.10892446  1 0.077089
  H  H45  1  0.86087269  0.03035760  0.90075448  1 0.108523
  H  H46  1  0.76897493  0.54860338  0.14904735  1 0.097218
  H  H47  1  0.98828416  0.80032668  0.11990516  1 0.085951
  H  H48  1  0.05555481  0.90752391  0.84276116  1 0.090587
  H  H49  1  0.02425021  0.84797111  0.02957035  1 0.111529
  H  H50  1  0.78589376  0.90425204  0.04613362  1 0.090374
  H  H51  1  0.02722896  0.85507534  0.93525287  1 0.116104
  H  H52  1  0.81346077  0.95796817  0.95360856  1 0.111737
  H  H53  1  0.65586097  0.48836834  0.36067946  1 0.055282
  H  H54  1  0.32867401  0.15398553  0.33622652  1 0.112194
  H  H55  1  0.23416466  0.83452144  0.25706596  1 0.070605
  H  H56  1  0.37938373  0.26471602  0.29166768  1 0.076508
  H  H57  1  0.39712394  0.57591308  0.81073945  1 0.083779
  H  H58  1  0.31215269  0.16793338  0.10892446  1 0.077089
  H  H59  1  0.36087269  0.53035760  0.90075448  1 0.108523
  H  H60  1  0.26897493  0.04860338  0.14904735  1 0.097218
  H  H61  1  0.48828416  0.30032668  0.11990516  1 0.085951
  H  H62  1  0.55555481  0.40752391  0.84276116  1 0.090587
  H  H63  1  0.52425021  0.34797111  0.02957035  1 0.111529
  H  H64  1  0.28589376  0.40425204  0.04613362  1 0.090374
  H  H65  1  0.52722896  0.35507534  0.93525287  1 0.116104
  H  H66  1  0.31346077  0.45796817  0.95360856  1 0.111737
  H  H67  1  0.15586097  0.98836834  0.36067946  1 0.055282
  H  H68  1  0.82867401  0.34601447  0.83622652  1 0.112194
  H  H69  1  0.73416466  0.66547856  0.75706596  1 0.070605
  H  H70  1  0.87938373  0.23528398  0.79166768  1 0.076508
  H  H71  1  0.89712394  0.92408692  0.31073945  1 0.083779
  H  H72  1  0.81215269  0.33206662  0.60892446  1 0.077089
  H  H73  1  0.86087269  0.96964240  0.40075448  1 0.108523
  H  H74  1  0.76897493  0.45139662  0.64904735  1 0.097218
  H  H75  1  0.98828416  0.19967332  0.61990516  1 0.085951
  H  H76  1  0.05555481  0.09247609  0.34276116  1 0.090587
  H  H77  1  0.02425021  0.15202889  0.52957035  1 0.111529
  H  H78  1  0.78589376  0.09574796  0.54613362  1 0.090374
  H  H79  1  0.02722896  0.14492466  0.43525287  1 0.116104
  H  H80  1  0.81346077  0.04203183  0.45360856  1 0.111737
  H  H81  1  0.65586097  0.51163166  0.86067946  1 0.055282
  H  H82  1  0.32867401  0.84601447  0.83622652  1 0.112194
  H  H83  1  0.23416466  0.16547856  0.75706596  1 0.070605
  H  H84  1  0.37938373  0.73528398  0.79166768  1 0.076508
  H  H85  1  0.39712394  0.42408692  0.31073945  1 0.083779
  H  H86  1  0.31215269  0.83206662  0.60892446  1 0.077089
  H  H87  1  0.36087269  0.46964240  0.40075448  1 0.108523
  H  H88  1  0.26897493  0.95139662  0.64904735  1 0.097218
  H  H89  1  0.48828416  0.69967332  0.61990516  1 0.085951
  H  H90  1  0.55555481  0.59247609  0.34276116  1 0.090587
  H  H91  1  0.52425021  0.65202889  0.52957035  1 0.111529
  H  H92  1  0.28589376  0.59574796  0.54613362  1 0.090374
  H  H93  1  0.52722896  0.64492466  0.43525287  1 0.116104
  H  H94  1  0.31346077  0.54203183  0.45360856  1 0.111737
  H  H95  1  0.15586097  0.01163166  0.86067946  1 0.055282
  H  H96  1  0.17132599  0.34601447  0.66377348  1 0.112194
  H  H97  1  0.26583534  0.66547856  0.74293404  1 0.070605
  H  H98  1  0.12061627  0.23528398  0.70833232  1 0.076508
  H  H99  1  0.10287606  0.92408692  0.18926055  1 0.083779
  H  H100  1  0.18784731  0.33206662  0.89107554  1 0.077089
  H  H101  1  0.13912731  0.96964240  0.09924552  1 0.108523
  H  H102  1  0.23102507  0.45139662  0.85095265  1 0.097218
  H  H103  1  0.01171584  0.19967332  0.88009484  1 0.085951
  H  H104  1  0.94444519  0.09247609  0.15723884  1 0.090587
  H  H105  1  0.97574979  0.15202889  0.97042965  1 0.111529
  H  H106  1  0.21410624  0.09574796  0.95386638  1 0.090374
  H  H107  1  0.97277104  0.14492466  0.06474713  1 0.116104
  H  H108  1  0.18653923  0.04203183  0.04639144  1 0.111737
  H  H109  1  0.34413903  0.51163166  0.63932054  1 0.055282
  H  H110  1  0.67132599  0.84601447  0.66377348  1 0.112194
  H  H111  1  0.76583534  0.16547856  0.74293404  1 0.070605
  H  H112  1  0.62061627  0.73528398  0.70833232  1 0.076508
  H  H113  1  0.60287606  0.42408692  0.18926055  1 0.083779
  H  H114  1  0.68784731  0.83206662  0.89107554  1 0.077089
  H  H115  1  0.63912731  0.46964240  0.09924552  1 0.108523
  H  H116  1  0.73102507  0.95139662  0.85095265  1 0.097218
  H  H117  1  0.51171584  0.69967332  0.88009484  1 0.085951
  H  H118  1  0.44444519  0.59247609  0.15723884  1 0.090587
  H  H119  1  0.47574979  0.65202889  0.97042965  1 0.111529
  H  H120  1  0.71410624  0.59574796  0.95386638  1 0.090374
  H  H121  1  0.47277104  0.64492466  0.06474713  1 0.116104
  H  H122  1  0.68653923  0.54203183  0.04639144  1 0.111737
  H  H123  1  0.84413903  0.01163166  0.63932054  1 0.055282
  C  C124  1  0.20685612  0.59325542  0.25469326  1 0.136654
  C  C125  1  0.17475056  0.65508859  0.21419065  1 -0.166191
  C  C126  1  0.26989742  0.39417607  0.22918113  1 0.047793
  C  C127  1  0.05889426  0.93784070  0.57214205  1 0.095196
  C  C128  1  0.27685715  0.53972934  0.18809896  1 -0.303615
  C  C129  1  0.14784531  0.71667845  0.23881845  1 0.08449
  C  C130  1  0.23723093  0.45275778  0.25158629  1 -0.301026
  C  C131  1  0.23921912  0.52861286  0.23125815  1 0.092839
  C  C132  1  0.07560679  0.02687977  0.66044094  1 0.098291
  C  C133  1  0.18384200  0.66212785  0.34066238  1 0.07392
  C  C134  1  0.07792913  0.90798325  0.51793072  1 0.087398
  C  C135  1  0.09551251  0.00050648  0.60965236  1 -0.163861
  C  C136  1  0.20865896  0.59681757  0.31874214  1 -0.166714
  C  C137  1  0.04916111  0.83447414  0.41882389  1 0.085156
  C  C138  1  0.98659257  0.93365186  0.64206915  1 0.079569
  C  C139  1  0.02966078  0.86175113  0.46952275  1 -0.174731
  C  C140  1  0.16174157  0.89307200  0.45944331  1 0.071684
  C  C141  1  0.00282359  0.90489565  0.59009201  1 -0.173165
  C  C142  1  0.14556796  0.92330271  0.51098747  1 -0.171042
  C  C143  1  0.31200447  0.47933769  0.17068735  1 0.033574
  C  C144  1  0.70685612  0.09325542  0.25469326  1 0.136654
  C  C145  1  0.67475056  0.15508859  0.21419065  1 -0.166191
  C  C146  1  0.76989742  0.89417607  0.22918113  1 0.047793
  C  C147  1  0.55889426  0.43784070  0.57214205  1 0.095196
  C  C148  1  0.77685715  0.03972934  0.18809896  1 -0.303615
  C  C149  1  0.64784531  0.21667845  0.23881845  1 0.08449
  C  C150  1  0.73723093  0.95275778  0.25158629  1 -0.301026
  C  C151  1  0.73921912  0.02861286  0.23125815  1 0.092839
  C  C152  1  0.57560679  0.52687977  0.66044094  1 0.098291
  C  C153  1  0.68384200  0.16212785  0.34066238  1 0.07392
  C  C154  1  0.57792913  0.40798325  0.51793072  1 0.087398
  C  C155  1  0.59551251  0.50050648  0.60965236  1 -0.163861
  C  C156  1  0.70865896  0.09681757  0.31874214  1 -0.166714
  C  C157  1  0.54916111  0.33447414  0.41882389  1 0.085156
  C  C158  1  0.48659257  0.43365186  0.64206915  1 0.079569
  C  C159  1  0.52966078  0.36175113  0.46952275  1 -0.174731
  C  C160  1  0.66174157  0.39307200  0.45944331  1 0.071684
  C  C161  1  0.50282359  0.40489565  0.59009201  1 -0.173165
  C  C162  1  0.64556796  0.42330271  0.51098747  1 -0.171042
  C  C163  1  0.81200447  0.97933769  0.17068735  1 0.033574
  C  C164  1  0.79314388  0.59325542  0.24530674  1 0.136654
  C  C165  1  0.82524944  0.65508859  0.28580935  1 -0.166191
  C  C166  1  0.73010258  0.39417607  0.27081887  1 0.047793
  C  C167  1  0.94110574  0.93784070  0.92785795  1 0.095196
  C  C168  1  0.72314285  0.53972934  0.31190104  1 -0.303615
  C  C169  1  0.85215469  0.71667845  0.26118155  1 0.08449
  C  C170  1  0.76276907  0.45275778  0.24841371  1 -0.301026
  C  C171  1  0.76078088  0.52861286  0.26874185  1 0.092839
  C  C172  1  0.92439321  0.02687977  0.83955906  1 0.098291
  C  C173  1  0.81615800  0.66212785  0.15933762  1 0.07392
  C  C174  1  0.92207087  0.90798325  0.98206928  1 0.087398
  C  C175  1  0.90448749  0.00050648  0.89034764  1 -0.163861
  C  C176  1  0.79134104  0.59681757  0.18125786  1 -0.166714
  C  C177  1  0.95083889  0.83447414  0.08117611  1 0.085156
  C  C178  1  0.01340743  0.93365186  0.85793085  1 0.079569
  C  C179  1  0.97033922  0.86175113  0.03047725  1 -0.174731
  C  C180  1  0.83825843  0.89307200  0.04055669  1 0.071684
  C  C181  1  0.99717641  0.90489565  0.90990799  1 -0.173165
  C  C182  1  0.85443204  0.92330271  0.98901253  1 -0.171042
  C  C183  1  0.68799553  0.47933769  0.32931265  1 0.033574
  C  C184  1  0.29314388  0.09325542  0.24530674  1 0.136654
  C  C185  1  0.32524944  0.15508859  0.28580935  1 -0.166191
  C  C186  1  0.23010258  0.89417607  0.27081887  1 0.047793
  C  C187  1  0.44110574  0.43784070  0.92785795  1 0.095196
  C  C188  1  0.22314285  0.03972934  0.31190104  1 -0.303615
  C  C189  1  0.35215469  0.21667845  0.26118155  1 0.08449
  C  C190  1  0.26276907  0.95275778  0.24841371  1 -0.301026
  C  C191  1  0.26078088  0.02861286  0.26874185  1 0.092839
  C  C192  1  0.42439321  0.52687977  0.83955906  1 0.098291
  C  C193  1  0.31615800  0.16212785  0.15933762  1 0.07392
  C  C194  1  0.42207087  0.40798325  0.98206928  1 0.087398
  C  C195  1  0.40448749  0.50050648  0.89034764  1 -0.163861
  C  C196  1  0.29134104  0.09681757  0.18125786  1 -0.166714
  C  C197  1  0.45083889  0.33447414  0.08117611  1 0.085156
  C  C198  1  0.51340743  0.43365186  0.85793085  1 0.079569
  C  C199  1  0.47033922  0.36175113  0.03047725  1 -0.174731
  C  C200  1  0.33825843  0.39307200  0.04055669  1 0.071684
  C  C201  1  0.49717641  0.40489565  0.90990799  1 -0.173165
  C  C202  1  0.35443204  0.42330271  0.98901253  1 -0.171042
  C  C203  1  0.18799553  0.97933769  0.32931265  1 0.033574
  C  C204  1  0.79314388  0.40674458  0.74530674  1 0.136654
  C  C205  1  0.82524944  0.34491141  0.78580935  1 -0.166191
  C  C206  1  0.73010258  0.60582393  0.77081887  1 0.047793
  C  C207  1  0.94110574  0.06215930  0.42785795  1 0.095196
  C  C208  1  0.72314285  0.46027066  0.81190104  1 -0.303615
  C  C209  1  0.85215469  0.28332155  0.76118155  1 0.08449
  C  C210  1  0.76276907  0.54724222  0.74841371  1 -0.301026
  C  C211  1  0.76078088  0.47138714  0.76874185  1 0.092839
  C  C212  1  0.92439321  0.97312023  0.33955906  1 0.098291
  C  C213  1  0.81615800  0.33787215  0.65933762  1 0.07392
  C  C214  1  0.92207087  0.09201675  0.48206928  1 0.087398
  C  C215  1  0.90448749  0.99949352  0.39034764  1 -0.163861
  C  C216  1  0.79134104  0.40318243  0.68125786  1 -0.166714
  C  C217  1  0.95083889  0.16552586  0.58117611  1 0.085156
  C  C218  1  0.01340743  0.06634814  0.35793085  1 0.079569
  C  C219  1  0.97033922  0.13824887  0.53047725  1 -0.174731
  C  C220  1  0.83825843  0.10692800  0.54055669  1 0.071684
  C  C221  1  0.99717641  0.09510435  0.40990799  1 -0.173165
  C  C222  1  0.85443204  0.07669729  0.48901253  1 -0.171042
  C  C223  1  0.68799553  0.52066231  0.82931265  1 0.033574
  C  C224  1  0.29314388  0.90674458  0.74530674  1 0.136654
  C  C225  1  0.32524944  0.84491141  0.78580935  1 -0.166191
  C  C226  1  0.23010258  0.10582393  0.77081887  1 0.047793
  C  C227  1  0.44110574  0.56215930  0.42785795  1 0.095196
  C  C228  1  0.22314285  0.96027066  0.81190104  1 -0.303615
  C  C229  1  0.35215469  0.78332155  0.76118155  1 0.08449
  C  C230  1  0.26276907  0.04724222  0.74841371  1 -0.301026
  C  C231  1  0.26078088  0.97138714  0.76874185  1 0.092839
  C  C232  1  0.42439321  0.47312023  0.33955906  1 0.098291
  C  C233  1  0.31615800  0.83787215  0.65933762  1 0.07392
  C  C234  1  0.42207087  0.59201675  0.48206928  1 0.087398
  C  C235  1  0.40448749  0.49949352  0.39034764  1 -0.163861
  C  C236  1  0.29134104  0.90318243  0.68125786  1 -0.166714
  C  C237  1  0.45083889  0.66552586  0.58117611  1 0.085156
  C  C238  1  0.51340743  0.56634814  0.35793085  1 0.079569
  C  C239  1  0.47033922  0.63824887  0.53047725  1 -0.174731
  C  C240  1  0.33825843  0.60692800  0.54055669  1 0.071684
  C  C241  1  0.49717641  0.59510435  0.40990799  1 -0.173165
  C  C242  1  0.35443204  0.57669729  0.48901253  1 -0.171042
  C  C243  1  0.18799553  0.02066231  0.82931265  1 0.033574
  C  C244  1  0.20685612  0.40674458  0.75469326  1 0.136654
  C  C245  1  0.17475056  0.34491141  0.71419065  1 -0.166191
  C  C246  1  0.26989742  0.60582393  0.72918113  1 0.047793
  C  C247  1  0.05889426  0.06215930  0.07214205  1 0.095196
  C  C248  1  0.27685715  0.46027066  0.68809896  1 -0.303615
  C  C249  1  0.14784531  0.28332155  0.73881845  1 0.08449
  C  C250  1  0.23723093  0.54724222  0.75158629  1 -0.301026
  C  C251  1  0.23921912  0.47138714  0.73125815  1 0.092839
  C  C252  1  0.07560679  0.97312023  0.16044094  1 0.098291
  C  C253  1  0.18384200  0.33787215  0.84066238  1 0.07392
  C  C254  1  0.07792913  0.09201675  0.01793072  1 0.087398
  C  C255  1  0.09551251  0.99949352  0.10965236  1 -0.163861
  C  C256  1  0.20865896  0.40318243  0.81874214  1 -0.166714
  C  C257  1  0.04916111  0.16552586  0.91882389  1 0.085156
  C  C258  1  0.98659257  0.06634814  0.14206915  1 0.079569
  C  C259  1  0.02966078  0.13824887  0.96952275  1 -0.174731
  C  C260  1  0.16174157  0.10692800  0.95944331  1 0.071684
  C  C261  1  0.00282359  0.09510435  0.09009201  1 -0.173165
  C  C262  1  0.14556796  0.07669729  0.01098747  1 -0.171042
  C  C263  1  0.31200447  0.52066231  0.67068735  1 0.033574
  C  C264  1  0.70685612  0.90674458  0.75469326  1 0.136654
  C  C265  1  0.67475056  0.84491141  0.71419065  1 -0.166191
  C  C266  1  0.76989742  0.10582393  0.72918113  1 0.047793
  C  C267  1  0.55889426  0.56215930  0.07214205  1 0.095196
  C  C268  1  0.77685715  0.96027066  0.68809896  1 -0.303615
  C  C269  1  0.64784531  0.78332155  0.73881845  1 0.08449
  C  C270  1  0.73723093  0.04724222  0.75158629  1 -0.301026
  C  C271  1  0.73921912  0.97138714  0.73125815  1 0.092839
  C  C272  1  0.57560679  0.47312023  0.16044094  1 0.098291
  C  C273  1  0.68384200  0.83787215  0.84066238  1 0.07392
  C  C274  1  0.57792913  0.59201675  0.01793072  1 0.087398
  C  C275  1  0.59551251  0.49949352  0.10965236  1 -0.163861
  C  C276  1  0.70865896  0.90318243  0.81874214  1 -0.166714
  C  C277  1  0.54916111  0.66552586  0.91882389  1 0.085156
  C  C278  1  0.48659257  0.56634814  0.14206915  1 0.079569
  C  C279  1  0.52966078  0.63824887  0.96952275  1 -0.174731
  C  C280  1  0.66174157  0.60692800  0.95944331  1 0.071684
  C  C281  1  0.50282359  0.59510435  0.09009201  1 -0.173165
  C  C282  1  0.64556796  0.57669729  0.01098747  1 -0.171042
  C  C283  1  0.81200447  0.02066231  0.67068735  1 0.033574
  N  N284  1  0.15399418  0.72237178  0.30178776  1 -0.21489
  N  N285  1  0.02197664  0.99447616  0.67755876  1 -0.213887
  N  N286  1  0.30996206  0.40536016  0.19011285  1 -0.224264
  N  N287  1  0.11452307  0.84914347  0.41264286  1 -0.220239
  N  N288  1  0.65399418  0.22237178  0.30178776  1 -0.21489
  N  N289  1  0.52197664  0.49447616  0.67755876  1 -0.213887
  N  N290  1  0.80996206  0.90536016  0.19011285  1 -0.224264
  N  N291  1  0.61452307  0.34914347  0.41264286  1 -0.220239
  N  N292  1  0.84600582  0.72237178  0.19821224  1 -0.21489
  N  N293  1  0.97802336  0.99447616  0.82244124  1 -0.213887
  N  N294  1  0.69003794  0.40536016  0.30988715  1 -0.224264
  N  N295  1  0.88547693  0.84914347  0.08735714  1 -0.220239
  N  N296  1  0.34600582  0.22237178  0.19821224  1 -0.21489
  N  N297  1  0.47802336  0.49447616  0.82244124  1 -0.213887
  N  N298  1  0.19003794  0.90536016  0.30988715  1 -0.224264
  N  N299  1  0.38547693  0.34914347  0.08735714  1 -0.220239
  N  N300  1  0.84600582  0.27762822  0.69821224  1 -0.21489
  N  N301  1  0.97802336  0.00552384  0.32244124  1 -0.213887
  N  N302  1  0.69003794  0.59463984  0.80988715  1 -0.224264
  N  N303  1  0.88547693  0.15085653  0.58735714  1 -0.220239
  N  N304  1  0.34600582  0.77762822  0.69821224  1 -0.21489
  N  N305  1  0.47802336  0.50552384  0.32244124  1 -0.213887
  N  N306  1  0.19003794  0.09463984  0.80988715  1 -0.224264
  N  N307  1  0.38547693  0.65085653  0.58735714  1 -0.220239
  N  N308  1  0.15399418  0.27762822  0.80178776  1 -0.21489
  N  N309  1  0.02197664  0.00552384  0.17755876  1 -0.213887
  N  N310  1  0.30996206  0.59463984  0.69011285  1 -0.224264
  N  N311  1  0.11452307  0.15085653  0.91264286  1 -0.220239
  N  N312  1  0.65399418  0.77762822  0.80178776  1 -0.21489
  N  N313  1  0.52197664  0.50552384  0.17755876  1 -0.213887
  N  N314  1  0.80996206  0.09463984  0.69011285  1 -0.224264
  N  N315  1  0.61452307  0.65085653  0.91264286  1 -0.220239
  Cl  Cl316  1  -0.00000000  0.16613893  0.75000000  1 -0.507705
  Cl  Cl317  1  0.50000000  0.66613893  0.75000000  1 -0.507705
  Cl  Cl318  1  -0.00000000  0.83386107  0.25000000  1 -0.507705
  Cl  Cl319  1  0.50000000  0.33386107  0.25000000  1 -0.507705
