# generated using pymatgen
data_CoH3C6SNO2
_symmetry_space_group_name_H-M   'P 1'
_cell_length_a   8.74051284
_cell_length_b   8.74051252
_cell_length_c   11.91452204
_cell_angle_alpha   90.00000000
_cell_angle_beta   90.00000000
_cell_angle_gamma   103.26107846
_symmetry_Int_Tables_number   1
_chemical_formula_structural   CoH3C6SNO2
_chemical_formula_sum   'Co4 H12 C24 S4 N4 O8'
_cell_volume   885.95720707
_cell_formula_units_Z   4
loop_
 _symmetry_equiv_pos_site_id
 _symmetry_equiv_pos_as_xyz
  1  'x, y, z'
loop_
 _atom_site_type_symbol
 _atom_site_label
 _atom_site_symmetry_multiplicity
 _atom_site_fract_x
 _atom_site_fract_y
 _atom_site_fract_z
 _atom_site_occupancy
 _atom_site_charge
  Co  Co0  1  0.11252848  0.11252848  -0.00000000  1 0.697487
  Co  Co1  1  0.88747152  0.88747152  0.50000000  1 0.697487
  Co  Co2  1  0.10301094  0.89698906  0.25000000  1 0.704193
  Co  Co3  1  0.89698906  0.10301094  0.75000000  1 0.704193
  H  H4  1  0.48589887  0.13806625  0.30436119  1 0.127401
  H  H5  1  0.72978075  0.11716219  0.19734980  1 0.112225
  H  H6  1  0.47622979  0.14075821  0.89006152  1 0.096278
  H  H7  1  0.51410113  0.86193375  0.80436119  1 0.1274
  H  H8  1  0.27021925  0.88283781  0.69734980  1 0.112225
  H  H9  1  0.52377021  0.85924179  0.39006152  1 0.096277
  H  H10  1  0.86193375  0.51410113  0.19563881  1 0.127402
  H  H11  1  0.88283781  0.27021925  0.30265020  1 0.112222
  H  H12  1  0.85924179  0.52377021  0.60993848  1 0.096279
  H  H13  1  0.13806625  0.48589887  0.69563881  1 0.127401
  H  H14  1  0.11716219  0.72978075  0.80265020  1 0.112222
  H  H15  1  0.14075821  0.47622979  0.10993848  1 0.096278
  C  C16  1  0.35357000  0.14591485  0.15182295  1 0.254516
  C  C17  1  0.48873917  0.13859329  0.21308054  1 -0.1589
  C  C18  1  0.62291070  0.12828138  0.15410195  1 -0.030206
  C  C19  1  0.62269387  0.13135337  0.03641040  1 -0.094995
  C  C20  1  0.48324910  0.13934611  0.98147493  1 0.101135
  C  C21  1  0.76618751  0.12236835  0.97224104  1 0.582773
  C  C22  1  0.64643000  0.85408515  0.65182295  1 0.254516
  C  C23  1  0.51126083  0.86140671  0.71308054  1 -0.1589
  C  C24  1  0.37708930  0.87171862  0.65410195  1 -0.030206
  C  C25  1  0.37730613  0.86864663  0.53641040  1 -0.094995
  C  C26  1  0.51675090  0.86065389  0.48147493  1 0.101135
  C  C27  1  0.23381249  0.87763165  0.47224104  1 0.582773
  C  C28  1  0.85408515  0.64643000  0.34817705  1 0.254525
  C  C29  1  0.86140671  0.51126083  0.28691946  1 -0.158901
  C  C30  1  0.87171862  0.37708930  0.34589805  1 -0.030207
  C  C31  1  0.86864663  0.37730613  0.46358960  1 -0.09499
  C  C32  1  0.86065389  0.51675090  0.51852507  1 0.101142
  C  C33  1  0.87763165  0.23381249  0.52775896  1 0.582769
  C  C34  1  0.14591485  0.35357000  0.84817705  1 0.254524
  C  C35  1  0.13859329  0.48873917  0.78691946  1 -0.158901
  C  C36  1  0.12828138  0.62291070  0.84589805  1 -0.030207
  C  C37  1  0.13135337  0.62269387  0.96358960  1 -0.09499
  C  C38  1  0.13934611  0.48324910  0.01852507  1 0.101143
  C  C39  1  0.12236835  0.76618751  0.02775896  1 0.582769
  S  S40  1  0.16939737  0.15292306  0.20806706  1 -0.36897
  S  S41  1  0.83060263  0.84707694  0.70806706  1 -0.36897
  S  S42  1  0.84707694  0.83060263  0.29193294  1 -0.368966
  S  S43  1  0.15292306  0.16939737  0.79193294  1 -0.368966
  N  N44  1  0.35194410  0.14307844  0.03809390  1 -0.282522
  N  N45  1  0.64805590  0.85692156  0.53809390  1 -0.282523
  N  N46  1  0.85692156  0.64805590  0.46190610  1 -0.282524
  N  N47  1  0.14307844  0.35194410  0.96190610  1 -0.282524
  O  O48  1  0.88161926  0.09386139  0.02583476  1 -0.53183
  O  O49  1  0.23992172  0.85562144  0.36583072  1 -0.507751
  O  O50  1  0.11838074  0.90613861  0.52583476  1 -0.53183
  O  O51  1  0.76007828  0.14437856  0.86583072  1 -0.507751
  O  O52  1  0.90613861  0.11838074  0.47416524  1 -0.53183
  O  O53  1  0.14437856  0.76007828  0.13416928  1 -0.507752
  O  O54  1  0.09386139  0.88161926  0.97416524  1 -0.53183
  O  O55  1  0.85562144  0.23992172  0.63416928  1 -0.507752
