# generated using pymatgen
data_Zn11H18(C3O2)18
_symmetry_space_group_name_H-M   'P 1'
_cell_length_a   20.87507349
_cell_length_b   20.87507349
_cell_length_c   20.87507349
_cell_angle_alpha   90.00000000
_cell_angle_beta   90.00000000
_cell_angle_gamma   90.00000000
_symmetry_Int_Tables_number   1
_chemical_formula_structural   Zn11H18(C3O2)18
_chemical_formula_sum   'Zn22 H36 C108 O72'
_cell_volume   9096.70349721
_cell_formula_units_Z   2
loop_
 _symmetry_equiv_pos_site_id
 _symmetry_equiv_pos_as_xyz
  1  'x, y, z'
loop_
 _atom_site_type_symbol
 _atom_site_label
 _atom_site_symmetry_multiplicity
 _atom_site_fract_x
 _atom_site_fract_y
 _atom_site_fract_z
 _atom_site_occupancy
 _atom_site_charge
  Zn  Zn0  1  0.00000000  -0.00000000  0.43823818  1 0.979332
  Zn  Zn1  1  0.00000000  -0.00000000  0.56176182  1 0.979332
  Zn  Zn2  1  0.43823818  -0.00000000  0.00000000  1 0.979332
  Zn  Zn3  1  0.56176182  -0.00000000  0.00000000  1 0.979332
  Zn  Zn4  1  0.00000000  0.43823818  0.00000000  1 0.979332
  Zn  Zn5  1  0.00000000  0.56176182  0.00000000  1 0.979332
  Zn  Zn6  1  0.34432291  0.34432291  0.34432291  1 0.41011
  Zn  Zn7  1  0.25666778  0.25666778  0.25666778  1 0.957402
  Zn  Zn8  1  0.65567709  0.65567709  0.34432291  1 0.41011
  Zn  Zn9  1  0.74333222  0.74333222  0.25666778  1 0.957402
  Zn  Zn10  1  0.65567709  0.34432291  0.65567709  1 0.41011
  Zn  Zn11  1  0.74333222  0.25666778  0.74333222  1 0.957402
  Zn  Zn12  1  0.34432291  0.65567709  0.65567709  1 0.41011
  Zn  Zn13  1  0.25666778  0.74333222  0.74333222  1 0.957402
  Zn  Zn14  1  0.34432291  0.34432291  0.65567709  1 0.41011
  Zn  Zn15  1  0.25666778  0.25666778  0.74333222  1 0.957402
  Zn  Zn16  1  0.65567709  0.65567709  0.65567709  1 0.41011
  Zn  Zn17  1  0.74333222  0.74333222  0.74333222  1 0.957402
  Zn  Zn18  1  0.34432291  0.65567709  0.34432291  1 0.41011
  Zn  Zn19  1  0.25666778  0.74333222  0.25666778  1 0.957402
  Zn  Zn20  1  0.65567709  0.34432291  0.34432291  1 0.41011
  Zn  Zn21  1  0.74333222  0.25666778  0.25666778  1 0.957402
  H  H22  1  0.14321687  0.14321687  0.39677197  1 0.126644
  H  H23  1  0.85678313  0.85678313  0.39677197  1 0.126644
  H  H24  1  0.85678313  0.14321687  0.60322803  1 0.126644
  H  H25  1  0.14321687  0.85678313  0.60322803  1 0.126644
  H  H26  1  0.39677197  0.14321687  0.14321687  1 0.126644
  H  H27  1  0.39677197  0.85678313  0.85678313  1 0.126644
  H  H28  1  0.60322803  0.85678313  0.14321687  1 0.126644
  H  H29  1  0.60322803  0.14321687  0.85678313  1 0.126644
  H  H30  1  0.14321687  0.39677197  0.14321687  1 0.126644
  H  H31  1  0.85678313  0.39677197  0.85678313  1 0.126644
  H  H32  1  0.14321687  0.60322803  0.85678313  1 0.126644
  H  H33  1  0.85678313  0.60322803  0.14321687  1 0.126644
  H  H34  1  0.14321687  0.14321687  0.60322803  1 0.126644
  H  H35  1  0.85678313  0.85678313  0.60322803  1 0.126644
  H  H36  1  0.14321687  0.85678313  0.39677197  1 0.126644
  H  H37  1  0.85678313  0.14321687  0.39677197  1 0.126644
  H  H38  1  0.14321687  0.39677197  0.85678313  1 0.126644
  H  H39  1  0.85678313  0.39677197  0.14321687  1 0.126644
  H  H40  1  0.85678313  0.60322803  0.85678313  1 0.126644
  H  H41  1  0.14321687  0.60322803  0.14321687  1 0.126644
  H  H42  1  0.39677197  0.14321687  0.85678313  1 0.126644
  H  H43  1  0.39677197  0.85678313  0.14321687  1 0.126644
  H  H44  1  0.60322803  0.14321687  0.14321687  1 0.126644
  H  H45  1  0.60322803  0.85678313  0.85678313  1 0.126644
  H  H46  1  0.26958090  0.26958090  0.50000000  1 0.124638
  H  H47  1  0.73041910  0.73041910  0.50000000  1 0.124638
  H  H48  1  0.73041910  0.26958090  0.50000000  1 0.124638
  H  H49  1  0.26958090  0.73041910  0.50000000  1 0.124638
  H  H50  1  0.50000000  0.26958090  0.26958090  1 0.124638
  H  H51  1  0.50000000  0.73041910  0.73041910  1 0.124638
  H  H52  1  0.50000000  0.73041910  0.26958090  1 0.124638
  H  H53  1  0.50000000  0.26958090  0.73041910  1 0.124638
  H  H54  1  0.26958090  0.50000000  0.26958090  1 0.124638
  H  H55  1  0.73041910  0.50000000  0.73041910  1 0.124638
  H  H56  1  0.26958090  0.50000000  0.73041910  1 0.124638
  H  H57  1  0.73041910  0.50000000  0.26958090  1 0.124638
  C  C58  1  0.20919595  0.20919595  0.44185683  1 -0.041259
  C  C59  1  0.23592949  0.23592949  0.38111572  1 0.595485
  C  C60  1  0.16183000  0.16183000  0.44178224  1 -0.072885
  C  C61  1  0.79080405  0.79080405  0.44185683  1 -0.041259
  C  C62  1  0.76407051  0.76407051  0.38111572  1 0.595485
  C  C63  1  0.83817000  0.83817000  0.44178224  1 -0.072885
  C  C64  1  0.79080405  0.20919595  0.55814317  1 -0.041259
  C  C65  1  0.76407051  0.23592949  0.61888428  1 0.595485
  C  C66  1  0.83817000  0.16183000  0.55821776  1 -0.072885
  C  C67  1  0.20919595  0.79080405  0.55814317  1 -0.041259
  C  C68  1  0.23592949  0.76407051  0.61888428  1 0.595485
  C  C69  1  0.16183000  0.83817000  0.55821776  1 -0.072885
  C  C70  1  0.44185683  0.20919595  0.20919595  1 -0.041259
  C  C71  1  0.38111572  0.23592949  0.23592949  1 0.595485
  C  C72  1  0.44178224  0.16183000  0.16183000  1 -0.072885
  C  C73  1  0.44185683  0.79080405  0.79080405  1 -0.041259
  C  C74  1  0.38111572  0.76407051  0.76407051  1 0.595485
  C  C75  1  0.44178224  0.83817000  0.83817000  1 -0.072885
  C  C76  1  0.55814317  0.79080405  0.20919595  1 -0.041259
  C  C77  1  0.61888428  0.76407051  0.23592949  1 0.595485
  C  C78  1  0.55821776  0.83817000  0.16183000  1 -0.072885
  C  C79  1  0.55814317  0.20919595  0.79080405  1 -0.041259
  C  C80  1  0.61888428  0.23592949  0.76407051  1 0.595485
  C  C81  1  0.55821776  0.16183000  0.83817000  1 -0.072885
  C  C82  1  0.20919595  0.44185683  0.20919595  1 -0.041259
  C  C83  1  0.23592949  0.38111572  0.23592949  1 0.595485
  C  C84  1  0.16183000  0.44178224  0.16183000  1 -0.072885
  C  C85  1  0.79080405  0.44185683  0.79080405  1 -0.041259
  C  C86  1  0.76407051  0.38111572  0.76407051  1 0.595485
  C  C87  1  0.83817000  0.44178224  0.83817000  1 -0.072885
  C  C88  1  0.20919595  0.55814317  0.79080405  1 -0.041259
  C  C89  1  0.23592949  0.61888428  0.76407051  1 0.595485
  C  C90  1  0.16183000  0.55821776  0.83817000  1 -0.072885
  C  C91  1  0.79080405  0.55814317  0.20919595  1 -0.041259
  C  C92  1  0.76407051  0.61888428  0.23592949  1 0.595485
  C  C93  1  0.83817000  0.55821776  0.16183000  1 -0.072885
  C  C94  1  0.20919595  0.20919595  0.55814317  1 -0.041259
  C  C95  1  0.23592949  0.23592949  0.61888428  1 0.595485
  C  C96  1  0.16183000  0.16183000  0.55821776  1 -0.072885
  C  C97  1  0.79080405  0.79080405  0.55814317  1 -0.041259
  C  C98  1  0.76407051  0.76407051  0.61888428  1 0.595485
  C  C99  1  0.83817000  0.83817000  0.55821776  1 -0.072885
  C  C100  1  0.20919595  0.79080405  0.44185683  1 -0.041259
  C  C101  1  0.23592949  0.76407051  0.38111572  1 0.595485
  C  C102  1  0.16183000  0.83817000  0.44178224  1 -0.072885
  C  C103  1  0.79080405  0.20919595  0.44185683  1 -0.041259
  C  C104  1  0.76407051  0.23592949  0.38111572  1 0.595485
  C  C105  1  0.83817000  0.16183000  0.44178224  1 -0.072885
  C  C106  1  0.20919595  0.44185683  0.79080405  1 -0.041259
  C  C107  1  0.23592949  0.38111572  0.76407051  1 0.595485
  C  C108  1  0.16183000  0.44178224  0.83817000  1 -0.072885
  C  C109  1  0.79080405  0.44185683  0.20919595  1 -0.041259
  C  C110  1  0.76407051  0.38111572  0.23592949  1 0.595485
  C  C111  1  0.83817000  0.44178224  0.16183000  1 -0.072885
  C  C112  1  0.79080405  0.55814317  0.79080405  1 -0.041259
  C  C113  1  0.76407051  0.61888428  0.76407051  1 0.595485
  C  C114  1  0.83817000  0.55821776  0.83817000  1 -0.072885
  C  C115  1  0.20919595  0.55814317  0.20919595  1 -0.041259
  C  C116  1  0.23592949  0.61888428  0.23592949  1 0.595485
  C  C117  1  0.16183000  0.55821776  0.16183000  1 -0.072885
  C  C118  1  0.44185683  0.20919595  0.79080405  1 -0.041259
  C  C119  1  0.38111572  0.23592949  0.76407051  1 0.595485
  C  C120  1  0.44178224  0.16183000  0.83817000  1 -0.072885
  C  C121  1  0.44185683  0.79080405  0.20919595  1 -0.041259
  C  C122  1  0.38111572  0.76407051  0.23592949  1 0.595485
  C  C123  1  0.44178224  0.83817000  0.16183000  1 -0.072885
  C  C124  1  0.55814317  0.20919595  0.20919595  1 -0.041259
  C  C125  1  0.61888428  0.23592949  0.23592949  1 0.595485
  C  C126  1  0.55821776  0.16183000  0.16183000  1 -0.072885
  C  C127  1  0.55814317  0.79080405  0.79080405  1 -0.041259
  C  C128  1  0.61888428  0.76407051  0.76407051  1 0.595485
  C  C129  1  0.55821776  0.83817000  0.83817000  1 -0.072885
  C  C130  1  0.23271366  0.23271366  0.50000000  1 -0.06752
  C  C131  1  0.13824829  0.13824829  0.50000000  1 -0.041553
  C  C132  1  0.08768265  0.08768265  0.50000000  1 0.598657
  C  C133  1  0.76728634  0.76728634  0.50000000  1 -0.06752
  C  C134  1  0.86175171  0.86175171  0.50000000  1 -0.041553
  C  C135  1  0.91231735  0.91231735  0.50000000  1 0.598657
  C  C136  1  0.76728634  0.23271366  0.50000000  1 -0.06752
  C  C137  1  0.86175171  0.13824829  0.50000000  1 -0.041553
  C  C138  1  0.91231735  0.08768265  0.50000000  1 0.598657
  C  C139  1  0.23271366  0.76728634  0.50000000  1 -0.06752
  C  C140  1  0.13824829  0.86175171  0.50000000  1 -0.041553
  C  C141  1  0.08768265  0.91231735  0.50000000  1 0.598657
  C  C142  1  0.50000000  0.23271366  0.23271366  1 -0.06752
  C  C143  1  0.50000000  0.13824829  0.13824829  1 -0.041553
  C  C144  1  0.50000000  0.08768265  0.08768265  1 0.598657
  C  C145  1  0.50000000  0.76728634  0.76728634  1 -0.06752
  C  C146  1  0.50000000  0.86175171  0.86175171  1 -0.041553
  C  C147  1  0.50000000  0.91231735  0.91231735  1 0.598657
  C  C148  1  0.50000000  0.76728634  0.23271366  1 -0.06752
  C  C149  1  0.50000000  0.86175171  0.13824829  1 -0.041553
  C  C150  1  0.50000000  0.91231735  0.08768265  1 0.598657
  C  C151  1  0.50000000  0.23271366  0.76728634  1 -0.06752
  C  C152  1  0.50000000  0.13824829  0.86175171  1 -0.041553
  C  C153  1  0.50000000  0.08768265  0.91231735  1 0.598657
  C  C154  1  0.23271366  0.50000000  0.23271366  1 -0.06752
  C  C155  1  0.13824829  0.50000000  0.13824829  1 -0.041553
  C  C156  1  0.08768265  0.50000000  0.08768265  1 0.598657
  C  C157  1  0.76728634  0.50000000  0.76728634  1 -0.06752
  C  C158  1  0.86175171  0.50000000  0.86175171  1 -0.041553
  C  C159  1  0.91231735  0.50000000  0.91231735  1 0.598657
  C  C160  1  0.23271366  0.50000000  0.76728634  1 -0.06752
  C  C161  1  0.13824829  0.50000000  0.86175171  1 -0.041553
  C  C162  1  0.08768265  0.50000000  0.91231735  1 0.598657
  C  C163  1  0.76728634  0.50000000  0.23271366  1 -0.06752
  C  C164  1  0.86175171  0.50000000  0.13824829  1 -0.041553
  C  C165  1  0.91231735  0.50000000  0.08768265  1 0.598657
  O  O166  1  0.27865398  0.27865398  0.38514484  1 -0.524049
  O  O167  1  0.21395290  0.21395290  0.32750806  1 -0.542558
  O  O168  1  0.06801564  0.06801564  0.44544583  1 -0.549159
  O  O169  1  0.72134602  0.72134602  0.38514484  1 -0.524049
  O  O170  1  0.78604710  0.78604710  0.32750806  1 -0.542558
  O  O171  1  0.93198436  0.93198436  0.44544583  1 -0.549159
  O  O172  1  0.72134602  0.27865398  0.61485516  1 -0.524049
  O  O173  1  0.78604710  0.21395290  0.67249194  1 -0.542558
  O  O174  1  0.93198436  0.06801564  0.55455417  1 -0.549159
  O  O175  1  0.27865398  0.72134602  0.61485516  1 -0.524049
  O  O176  1  0.21395290  0.78604710  0.67249194  1 -0.542558
  O  O177  1  0.06801564  0.93198436  0.55455417  1 -0.549159
  O  O178  1  0.38514484  0.27865398  0.27865398  1 -0.524049
  O  O179  1  0.32750806  0.21395290  0.21395290  1 -0.542558
  O  O180  1  0.44544583  0.06801564  0.06801564  1 -0.549159
  O  O181  1  0.38514484  0.72134602  0.72134602  1 -0.524049
  O  O182  1  0.32750806  0.78604710  0.78604710  1 -0.542558
  O  O183  1  0.44544583  0.93198436  0.93198436  1 -0.549159
  O  O184  1  0.61485516  0.72134602  0.27865398  1 -0.524049
  O  O185  1  0.67249194  0.78604710  0.21395290  1 -0.542558
  O  O186  1  0.55455417  0.93198436  0.06801564  1 -0.549159
  O  O187  1  0.61485516  0.27865398  0.72134602  1 -0.524049
  O  O188  1  0.67249194  0.21395290  0.78604710  1 -0.542558
  O  O189  1  0.55455417  0.06801564  0.93198436  1 -0.549159
  O  O190  1  0.27865398  0.38514484  0.27865398  1 -0.524049
  O  O191  1  0.21395290  0.32750806  0.21395290  1 -0.542558
  O  O192  1  0.06801564  0.44544583  0.06801564  1 -0.549159
  O  O193  1  0.72134602  0.38514484  0.72134602  1 -0.524049
  O  O194  1  0.78604710  0.32750806  0.78604710  1 -0.542558
  O  O195  1  0.93198436  0.44544583  0.93198436  1 -0.549159
  O  O196  1  0.27865398  0.61485516  0.72134602  1 -0.524049
  O  O197  1  0.21395290  0.67249194  0.78604710  1 -0.542558
  O  O198  1  0.06801564  0.55455417  0.93198436  1 -0.549159
  O  O199  1  0.72134602  0.61485516  0.27865398  1 -0.524049
  O  O200  1  0.78604710  0.67249194  0.21395290  1 -0.542558
  O  O201  1  0.93198436  0.55455417  0.06801564  1 -0.549159
  O  O202  1  0.27865398  0.27865398  0.61485516  1 -0.524049
  O  O203  1  0.21395290  0.21395290  0.67249194  1 -0.542558
  O  O204  1  0.06801564  0.06801564  0.55455417  1 -0.549159
  O  O205  1  0.72134602  0.72134602  0.61485516  1 -0.524049
  O  O206  1  0.78604710  0.78604710  0.67249194  1 -0.542558
  O  O207  1  0.93198436  0.93198436  0.55455417  1 -0.549159
  O  O208  1  0.27865398  0.72134602  0.38514484  1 -0.524049
  O  O209  1  0.21395290  0.78604710  0.32750806  1 -0.542558
  O  O210  1  0.06801564  0.93198436  0.44544583  1 -0.549159
  O  O211  1  0.72134602  0.27865398  0.38514484  1 -0.524049
  O  O212  1  0.78604710  0.21395290  0.32750806  1 -0.542558
  O  O213  1  0.93198436  0.06801564  0.44544583  1 -0.549159
  O  O214  1  0.27865398  0.38514484  0.72134602  1 -0.524049
  O  O215  1  0.21395290  0.32750806  0.78604710  1 -0.542558
  O  O216  1  0.06801564  0.44544583  0.93198436  1 -0.549159
  O  O217  1  0.72134602  0.38514484  0.27865398  1 -0.524049
  O  O218  1  0.78604710  0.32750806  0.21395290  1 -0.542558
  O  O219  1  0.93198436  0.44544583  0.06801564  1 -0.549159
  O  O220  1  0.72134602  0.61485516  0.72134602  1 -0.524049
  O  O221  1  0.78604710  0.67249194  0.78604710  1 -0.542558
  O  O222  1  0.93198436  0.55455417  0.93198436  1 -0.549159
  O  O223  1  0.27865398  0.61485516  0.27865398  1 -0.524049
  O  O224  1  0.21395290  0.67249194  0.21395290  1 -0.542558
  O  O225  1  0.06801564  0.55455417  0.06801564  1 -0.549159
  O  O226  1  0.38514484  0.27865398  0.72134602  1 -0.524049
  O  O227  1  0.32750806  0.21395290  0.78604710  1 -0.542558
  O  O228  1  0.44544583  0.06801564  0.93198436  1 -0.549159
  O  O229  1  0.38514484  0.72134602  0.27865398  1 -0.524049
  O  O230  1  0.32750806  0.78604710  0.21395290  1 -0.542558
  O  O231  1  0.44544583  0.93198436  0.06801564  1 -0.549159
  O  O232  1  0.61485516  0.27865398  0.27865398  1 -0.524049
  O  O233  1  0.67249194  0.21395290  0.21395290  1 -0.542558
  O  O234  1  0.55455417  0.06801564  0.06801564  1 -0.549159
  O  O235  1  0.61485516  0.72134602  0.72134602  1 -0.524049
  O  O236  1  0.67249194  0.78604710  0.78604710  1 -0.542558
  O  O237  1  0.55455417  0.93198436  0.93198436  1 -0.549159
