# generated using pymatgen
data_Na2ZnH16C28(SO6)2
_symmetry_space_group_name_H-M   'P 1'
_cell_length_a   25.91213138
_cell_length_b   4.77660355
_cell_length_c   26.42002028
_cell_angle_alpha   90.00013970
_cell_angle_beta   124.99441583
_cell_angle_gamma   90.00017827
_symmetry_Int_Tables_number   1
_chemical_formula_structural   Na2ZnH16C28(SO6)2
_chemical_formula_sum   'Na8 Zn4 H64 C112 S8 O48'
_cell_volume   2678.85764196
_cell_formula_units_Z   4
loop_
 _symmetry_equiv_pos_site_id
 _symmetry_equiv_pos_as_xyz
  1  'x, y, z'
loop_
 _atom_site_type_symbol
 _atom_site_label
 _atom_site_symmetry_multiplicity
 _atom_site_fract_x
 _atom_site_fract_y
 _atom_site_fract_z
 _atom_site_occupancy
 _atom_site_charge
  Na  Na0  1  0.63870528  0.26781954  0.45690325  1 0.884153
  Na  Na1  1  0.19163370  0.76458745  0.42203988  1 0.864348
  Na  Na2  1  0.36129200  0.76782793  0.04309284  1 0.884161
  Na  Na3  1  0.80836887  0.26459014  0.07796179  1 0.864356
  Na  Na4  1  0.36128970  0.73217959  0.54309441  1 0.884152
  Na  Na5  1  0.80836497  0.23542535  0.57796133  1 0.864358
  Na  Na6  1  0.63870695  0.23217657  0.95690785  1 0.884163
  Na  Na7  1  0.19163320  0.73540569  0.92203925  1 0.864336
  Zn  Zn8  1  0.23947113  0.22528561  0.51562418  1 0.94838
  Zn  Zn9  1  0.76052847  0.72529340  0.98437732  1 0.948423
  Zn  Zn10  1  0.76052890  0.77472015  0.48437836  1 0.948385
  Zn  Zn11  1  0.23947022  0.27470628  0.01562190  1 0.948421
  H  H12  1  0.15453830  0.16435173  0.55152482  1 0.112474
  H  H13  1  0.13053214  0.36571776  0.62352811  1 0.113574
  H  H14  1  0.23823976  0.70727233  0.75344751  1 0.123217
  H  H15  1  0.26442114  0.51237876  0.68240578  1 0.11402
  H  H16  1  0.03906721  0.37027058  0.63593151  1 0.107962
  H  H17  1  0.92996251  0.16546114  0.58306476  1 0.111751
  H  H18  1  0.00218188  0.51557236  0.71944773  1 0.114355
  H  H19  1  0.11156607  0.70995691  0.77076597  1 0.120486
  H  H20  1  0.29438181  0.71422815  0.38828287  1 0.127594
  H  H21  1  0.36852963  0.82695256  0.36072490  1 0.110828
  H  H22  1  0.47591443  0.08831308  0.45665015  1 0.118047
  H  H23  1  0.40131978  0.96666090  0.48241083  1 0.088559
  H  H24  1  0.39223511  0.84199081  0.28353331  1 0.107461
  H  H25  1  0.34896773  0.74072630  0.17311537  1 0.116682
  H  H26  1  0.46051111  0.99509749  0.22714588  1 0.103079
  H  H27  1  0.50498747  0.09086291  0.33788703  1 0.118277
  H  H28  1  0.84545966  0.66434662  0.94847173  1 0.112568
  H  H29  1  0.86946923  0.86569439  0.87646856  1 0.113625
  H  H30  1  0.76176264  0.20722432  0.74655274  1 0.123246
  H  H31  1  0.73558193  0.01234549  0.81759593  1 0.114012
  H  H32  1  0.96093248  0.87025045  0.86406357  1 0.108041
  H  H33  1  0.07003721  0.66545617  0.91692977  1 0.111756
  H  H34  1  0.99781925  0.01555152  0.78054924  1 0.114272
  H  H35  1  0.88843469  0.20992029  0.72923043  1 0.120512
  H  H36  1  0.70561969  0.21423284  0.11171898  1 0.127595
  H  H37  1  0.63146927  0.32694404  0.13927474  1 0.110804
  H  H38  1  0.52408772  0.58829540  0.04334763  1 0.117976
  H  H39  1  0.59868485  0.46664931  0.01759128  1 0.088579
  H  H40  1  0.60776132  0.34198815  0.21646160  1 0.107465
  H  H41  1  0.65102945  0.24073378  0.32687991  1 0.116689
  H  H42  1  0.53948675  0.49509978  0.27285104  1 0.10301
  H  H43  1  0.49501109  0.59084761  0.16211018  1 0.118364
  H  H44  1  0.84546180  0.83566182  0.44847639  1 0.112488
  H  H45  1  0.86947035  0.63429287  0.37647448  1 0.113596
  H  H46  1  0.76176219  0.29274149  0.24655450  1 0.123162
  H  H47  1  0.73558110  0.48763700  0.31759588  1 0.113982
  H  H48  1  0.96093308  0.62973050  0.36406918  1 0.107963
  H  H49  1  0.07003736  0.83453765  0.41693743  1 0.111779
  H  H50  1  0.99782232  0.48442581  0.28055544  1 0.114378
  H  H51  1  0.88843610  0.29005906  0.22923681  1 0.120508
  H  H52  1  0.70561662  0.28577971  0.61171659  1 0.127546
  H  H53  1  0.63146810  0.17305683  0.63927429  1 0.110835
  H  H54  1  0.52408319  0.91169152  0.54334836  1 0.117948
  H  H55  1  0.59867823  0.03334845  0.51758887  1 0.088543
  H  H56  1  0.60776318  0.15801384  0.71646594  1 0.107441
  H  H57  1  0.65103082  0.25927544  0.82688355  1 0.116723
  H  H58  1  0.53948809  0.00490997  0.77285338  1 0.103025
  H  H59  1  0.49501175  0.90914347  0.66211267  1 0.11836
  H  H60  1  0.15453379  0.33564303  0.05152412  1 0.112503
  H  H61  1  0.13052845  0.13428927  0.12352910  1 0.113588
  H  H62  1  0.23823790  0.79274900  0.25344639  1 0.123183
  H  H63  1  0.26441622  0.98763848  0.18240179  1 0.114022
  H  H64  1  0.03906774  0.12972808  0.13593323  1 0.107981
  H  H65  1  0.92996231  0.33453203  0.08306367  1 0.111746
  H  H66  1  0.00217887  0.98443075  0.21944603  1 0.114346
  H  H67  1  0.11156437  0.79005710  0.27076661  1 0.120476
  H  H68  1  0.29438220  0.78577340  0.88828333  1 0.127568
  H  H69  1  0.36853000  0.67306752  0.86072428  1 0.110792
  H  H70  1  0.47591366  0.41170903  0.95665305  1 0.117919
  H  H71  1  0.40131759  0.53335554  0.98241082  1 0.088523
  H  H72  1  0.39224056  0.65801668  0.78353990  1 0.107394
  H  H73  1  0.34897204  0.75927199  0.67312174  1 0.116658
  H  H74  1  0.46051443  0.50491019  0.72715117  1 0.103014
  H  H75  1  0.50499117  0.40915403  0.83789201  1 0.118292
  C  C76  1  0.22127959  0.69717015  0.56783653  1 0.600476
  C  C77  1  0.20948265  0.82489612  0.61173740  1 -0.04853
  C  C78  1  0.17413207  0.06944980  0.59647262  1 -0.063357
  C  C79  1  0.16164677  0.18627243  0.63718418  1 -0.09863
  C  C80  1  0.18343783  0.04272227  0.69243315  1 -0.069225
  C  C81  1  0.22107383  0.80692798  0.70952525  1 -0.07771
  C  C82  1  0.23327826  0.69153647  0.66887363  1 -0.08383
  C  C83  1  0.08071096  0.04521867  0.70599420  1 -0.083635
  C  C84  1  0.03034228  0.18939584  0.65497241  1 -0.10133
  C  C85  1  0.96992011  0.07033233  0.62468553  1 -0.073385
  C  C86  1  0.96056799  0.82342972  0.64650737  1 -0.034953
  C  C87  1  0.01150348  0.69241863  0.70001571  1 -0.081054
  C  C88  1  0.07151634  0.80808396  0.73002157  1 -0.057096
  C  C89  1  0.89781688  0.68265820  0.61451558  1 0.595306
  C  C90  1  0.29190492  0.24782568  0.44581012  1 0.619883
  C  C91  1  0.33931601  0.32376880  0.43253261  1 -0.035697
  C  C92  1  0.33242625  0.56890654  0.40093957  1 -0.08898
  C  C93  1  0.37631497  0.64348509  0.38856281  1 -0.077821
  C  C94  1  0.42830311  0.46625287  0.41008049  1 -0.100209
  C  C95  1  0.43648273  0.22525853  0.44280935  1 -0.078334
  C  C96  1  0.39154743  0.14836491  0.45348617  1 -0.085502
  C  C97  1  0.45213262  0.47172475  0.31686400  1 -0.094882
  C  C98  1  0.40747218  0.65799586  0.27130459  1 -0.090277
  C  C99  1  0.38075341  0.59373367  0.20938493  1 -0.066924
  C  C100  1  0.39781921  0.35081786  0.19350644  1 -0.039862
  C  C101  1  0.44391810  0.17154826  0.23991120  1 -0.076662
  C  C102  1  0.47126646  0.23390721  0.30192268  1 -0.073005
  C  C103  1  0.36979654  0.27964966  0.12745515  1 0.605039
  C  C104  1  0.77872089  0.19716872  0.93216277  1 0.600428
  C  C105  1  0.79051817  0.32487918  0.88826133  1 -0.048388
  C  C106  1  0.82586808  0.56943551  0.90352486  1 -0.063547
  C  C107  1  0.83835455  0.68624984  0.86281373  1 -0.0987
  C  C108  1  0.81656346  0.54268867  0.80756626  1 -0.069199
  C  C109  1  0.77892809  0.30689043  0.79047433  1 -0.07772
  C  C110  1  0.76672363  0.19150721  0.83112638  1 -0.083858
  C  C111  1  0.91928781  0.54519193  0.79400104  1 -0.083624
  C  C112  1  0.96965669  0.68937619  0.84502182  1 -0.101316
  C  C113  1  0.03007986  0.57031943  0.87530915  1 -0.073386
  C  C114  1  0.03943371  0.32341426  0.85348906  1 -0.035176
  C  C115  1  0.98849711  0.19240155  0.79998046  1 -0.080903
  C  C116  1  0.92848323  0.30805646  0.76997453  1 -0.057142
  C  C117  1  0.10218472  0.18264825  0.88548163  1 0.595379
  C  C118  1  0.70809937  0.74784260  0.05419237  1 0.619876
  C  C119  1  0.66068755  0.82377090  0.06746887  1 -0.035537
  C  C120  1  0.66757559  0.06890545  0.09906229  1 -0.088974
  C  C121  1  0.62368555  0.14347619  0.11143779  1 -0.077768
  C  C122  1  0.57169759  0.96623862  0.08991840  1 -0.100345
  C  C123  1  0.56352031  0.72524356  0.05719027  1 -0.07808
  C  C124  1  0.60845725  0.64835625  0.04651517  1 -0.085727
  C  C125  1  0.54786545  0.97171647  0.18313218  1 -0.095176
  C  C126  1  0.59252498  0.15799483  0.22869141  1 -0.090203
  C  C127  1  0.61924439  0.09373583  0.29061119  1 -0.066893
  C  C128  1  0.60217971  0.85081709  0.30648985  1 -0.039949
  C  C129  1  0.55607989  0.67154669  0.26008531  1 -0.076338
  C  C130  1  0.52873145  0.73389927  0.19807379  1 -0.073145
  C  C131  1  0.63020454  0.77964610  0.37254156  1 0.604847
  C  C132  1  0.77872441  0.30283470  0.43216653  1 0.600425
  C  C133  1  0.79051953  0.17511508  0.38826391  1 -0.048556
  C  C134  1  0.82586978  0.93056108  0.40352890  1 -0.063324
  C  C135  1  0.83835517  0.81373651  0.36281793  1 -0.098664
  C  C136  1  0.81656333  0.95728767  0.30756907  1 -0.069231
  C  C137  1  0.77892820  0.19308552  0.29047667  1 -0.077687
  C  C138  1  0.76672391  0.30847843  0.33112812  1 -0.083774
  C  C139  1  0.91928984  0.95478742  0.29400693  1 -0.08357
  C  C140  1  0.96965795  0.81060720  0.34502870  1 -0.101366
  C  C141  1  0.03008052  0.92966718  0.37531615  1 -0.073485
  C  C142  1  0.03943397  0.17656944  0.35349531  1 -0.034923
  C  C143  1  0.98849911  0.30758010  0.29998645  1 -0.08105
  C  C144  1  0.92848544  0.19192176  0.26998013  1 -0.057117
  C  C145  1  0.10218457  0.31734055  0.38548797  1 0.595249
  C  C146  1  0.70809310  0.75216833  0.55418880  1 0.61992
  C  C147  1  0.66068147  0.67623381  0.56746558  1 -0.035918
  C  C148  1  0.66757128  0.43109779  0.59905916  1 -0.088884
  C  C149  1  0.62368292  0.35652291  0.61143665  1 -0.077853
  C  C150  1  0.57169473  0.53375341  0.58991811  1 -0.100182
  C  C151  1  0.56351531  0.77474852  0.55718963  1 -0.078053
  C  C152  1  0.60845040  0.85164086  0.54651250  1 -0.085464
  C  C153  1  0.54786577  0.52828033  0.68313517  1 -0.095023
  C  C154  1  0.59252605  0.34200898  0.72869436  1 -0.090122
  C  C155  1  0.61924467  0.40626837  0.79061415  1 -0.067
  C  C156  1  0.60217912  0.64918464  0.80649289  1 -0.039912
  C  C157  1  0.55608054  0.82845627  0.76008809  1 -0.076513
  C  C158  1  0.52873214  0.76609760  0.69807666  1 -0.073117
  C  C159  1  0.63020200  0.72035384  0.87254431  1 0.605011
  C  C160  1  0.22127514  0.80282571  0.06783405  1 0.600392
  C  C161  1  0.20947861  0.67510879  0.11173564  1 -0.048377
  C  C162  1  0.17412838  0.43055251  0.09647186  1 -0.063422
  C  C163  1  0.16164378  0.31373245  0.13718411  1 -0.098705
  C  C164  1  0.18343638  0.45728697  0.19243295  1 -0.069197
  C  C165  1  0.22107141  0.69308661  0.20952414  1 -0.077632
  C  C166  1  0.23327480  0.80847533  0.16887152  1 -0.083952
  C  C167  1  0.08071066  0.45478683  0.20599518  1 -0.083688
  C  C168  1  0.03034239  0.31060549  0.15497332  1 -0.101345
  C  C169  1  0.96991940  0.42966404  0.12468528  1 -0.07339
  C  C170  1  0.96056628  0.67656855  0.14650627  1 -0.034984
  C  C171  1  0.01150199  0.80758168  0.20001542  1 -0.080995
  C  C172  1  0.07151538  0.69192198  0.23002227  1 -0.057068
  C  C173  1  0.89781621  0.81734510  0.11451349  1 0.595338
  C  C174  1  0.29190404  0.25215731  0.94581125  1 0.619803
  C  C175  1  0.33931575  0.17623028  0.93253488  1 -0.035701
  C  C176  1  0.33242685  0.93109714  0.90094075  1 -0.088983
  C  C177  1  0.37631605  0.85652766  0.88856414  1 -0.077773
  C  C178  1  0.42830360  0.03376443  0.91008291  1 -0.100268
  C  C179  1  0.43648246  0.27475756  0.94281188  1 -0.078172
  C  C180  1  0.39154588  0.35164567  0.95348724  1 -0.085421
  C  C181  1  0.45213679  0.02828631  0.81686922  1 -0.095249
  C  C182  1  0.40747689  0.84201061  0.77131015  1 -0.090097
  C  C183  1  0.38075760  0.90626959  0.70939035  1 -0.066854
  C  C184  1  0.39782229  0.14918894  0.69351173  1 -0.039932
  C  C185  1  0.44392203  0.32845874  0.73991665  1 -0.076307
  C  C186  1  0.47127082  0.26610376  0.80192814  1 -0.072996
  C  C187  1  0.36979665  0.22036928  0.62746002  1 0.604797
  S  S188  1  0.15901424  0.16853817  0.73987340  1 0.974686
  S  S189  1  0.48467933  0.55917420  0.39505365  1 1.016464
  S  S190  1  0.84098381  0.66850944  0.76012366  1 0.974681
  S  S191  1  0.51531856  0.05916072  0.10494113  1 1.016668
  S  S192  1  0.84098611  0.83146778  0.26012865  1 0.974743
  S  S193  1  0.51531879  0.44083114  0.60494514  1 1.016383
  S  S194  1  0.15901370  0.33146825  0.23987372  1 0.974685
  S  S195  1  0.48468199  0.94084214  0.89505953  1 1.016653
  O  O196  1  0.20566462  0.82260013  0.51835163  1 -0.624131
  O  O197  1  0.24620413  0.45299925  0.58224685  1 -0.508148
  O  O198  1  0.89529695  0.45885348  0.63796165  1 -0.598763
  O  O199  1  0.85098094  0.80283476  0.56529667  1 -0.673284
  O  O200  1  0.20025054  0.05860394  0.80186327  1 -0.510227
  O  O201  1  0.15295295  0.46898220  0.72910717  1 -0.522048
  O  O202  1  0.28330337  0.42479234  0.47768443  1 -0.693409
  O  O203  1  0.48458013  0.86264920  0.39464792  1 -0.528178
  O  O204  1  0.54303449  0.40892008  0.43767030  1 -0.579984
  O  O205  1  0.32781011  0.45175303  0.08578056  1 -0.669682
  O  O206  1  0.38943073  0.06272929  0.11729056  1 -0.617393
  O  O207  1  0.26485385  0.01634095  0.42730983  1 -0.611007
  O  O208  1  0.79433765  0.32260884  0.98164725  1 -0.62412
  O  O209  1  0.75379534  0.95299893  0.91775373  1 -0.508178
  O  O210  1  0.10470291  0.95883439  0.86203626  1 -0.598754
  O  O211  1  0.14901968  0.30283849  0.93469964  1 -0.673242
  O  O212  1  0.79974394  0.55855964  0.69813448  1 -0.510199
  O  O213  1  0.84704669  0.96895549  0.77088955  1 -0.522088
  O  O214  1  0.71669930  0.92481473  0.02231786  1 -0.693437
  O  O215  1  0.51541804  0.36263645  0.10534723  1 -0.528202
  O  O216  1  0.45696433  0.90889522  0.06232348  1 -0.580035
  O  O217  1  0.67219054  0.95175793  0.41421556  1 -0.669562
  O  O218  1  0.61057169  0.56272225  0.38270640  1 -0.617356
  O  O219  1  0.73515131  0.51636074  0.07269120  1 -0.611011
  O  O220  1  0.79434165  0.17739655  0.48165116  1 -0.624103
  O  O221  1  0.75379937  0.54700318  0.41775844  1 -0.508075
  O  O222  1  0.10470382  0.54114931  0.36204223  1 -0.598717
  O  O223  1  0.14901971  0.19716581  0.43470737  1 -0.673269
  O  O224  1  0.79974734  0.94140324  0.19813888  1 -0.510276
  O  O225  1  0.84705025  0.53102384  0.27089635  1 -0.522067
  O  O226  1  0.71669453  0.57519908  0.52231496  1 -0.693464
  O  O227  1  0.51541857  0.13735592  0.60535176  1 -0.528165
  O  O228  1  0.45696357  0.59108518  0.56232834  1 -0.579969
  O  O229  1  0.67218820  0.54824944  0.91421878  1 -0.669607
  O  O230  1  0.61056830  0.93727494  0.88270906  1 -0.617412
  O  O231  1  0.73514611  0.98364973  0.57268900  1 -0.611019
  O  O232  1  0.20565947  0.67738901  0.01834962  1 -0.624201
  O  O233  1  0.24620041  0.04699649  0.08224403  1 -0.508037
  O  O234  1  0.89530002  0.04115817  0.13796019  1 -0.598794
  O  O235  1  0.85097983  0.69716743  0.06529462  1 -0.673294
  O  O236  1  0.20025141  0.44141464  0.30186337  1 -0.510185
  O  O237  1  0.15295156  0.03102363  0.22910742  1 -0.52203
  O  O238  1  0.28330225  0.07518414  0.97768411  1 -0.693444
  O  O239  1  0.48458311  0.63736654  0.89465332  1 -0.528199
  O  O240  1  0.54303646  0.09110294  0.93767716  1 -0.580029
  O  O241  1  0.32781136  0.04825836  0.58578531  1 -0.669535
  O  O242  1  0.38942819  0.43730304  0.61729661  1 -0.617383
  O  O243  1  0.26485119  0.48363530  0.92731162  1 -0.610932
