# generated using pymatgen
data_CuH32(C9N)4
_symmetry_space_group_name_H-M   'P 1'
_cell_length_a   13.26988820
_cell_length_b   13.26987734
_cell_length_c   8.08436454
_cell_angle_alpha   90.00000288
_cell_angle_beta   90.00006910
_cell_angle_gamma   90.00011003
_symmetry_Int_Tables_number   1
_chemical_formula_structural   CuH32(C9N)4
_chemical_formula_sum   'Cu1 H32 C36 N4'
_cell_volume   1423.57404386
_cell_formula_units_Z   1
loop_
 _symmetry_equiv_pos_site_id
 _symmetry_equiv_pos_as_xyz
  1  'x, y, z'
loop_
 _atom_site_type_symbol
 _atom_site_label
 _atom_site_symmetry_multiplicity
 _atom_site_fract_x
 _atom_site_fract_y
 _atom_site_fract_z
 _atom_site_occupancy
 _atom_site_charge
  Cu  Cu0  1  0.12230792  0.17329177  0.16782327  1 -0.272994
  H  H1  1  0.01328753  0.47354899  0.43454044  1 0.083875
  H  H2  1  0.11611108  0.30948702  0.46327208  1 0.080807
  H  H3  1  0.01607355  0.64239084  0.35582023  1 0.083936
  H  H4  1  0.92961985  0.79701003  0.20568423  1 0.080808
  H  H5  1  0.59921547  0.09749586  0.91513138  1 0.083875
  H  H6  1  0.73759775  0.01699262  0.73572207  1 0.0808
  H  H7  1  0.37407921  0.88892287  0.19845041  1 0.083836
  H  H8  1  0.18249334  0.93544227  0.13890085  1 0.080794
  H  H9  1  0.06993425  0.31935411  0.80655341  1 0.083872
  H  H10  1  0.91891968  0.22494315  0.91153188  1 0.080798
  H  H11  1  0.02182736  0.53707764  0.69233763  1 0.08388
  H  H12  1  0.17735797  0.65101433  0.72501376  1 0.080831
  H  H13  1  0.39138923  0.18393745  0.71201806  1 0.083839
  H  H14  1  0.37430985  0.28547251  0.98316710  1 0.080793
  H  H15  1  0.45086041  0.80933931  0.83520445  1 0.083878
  H  H16  1  0.62444450  0.72556804  0.82176967  1 0.080809
  H  H17  1  0.89592581  0.54384541  0.92516249  1 0.083877
  H  H18  1  0.87371869  0.73610177  0.89564036  1 0.080803
  H  H19  1  0.15860992  0.43422135  0.99287768  1 0.083878
  H  H20  1  0.23580840  0.34816534  0.22203950  1 0.0808
  H  H21  1  0.35124086  0.99921671  0.73417257  1 0.083839
  H  H22  1  0.17484359  0.03444131  0.84705110  1 0.080788
  H  H23  1  0.46905237  0.87630615  0.54391572  1 0.083843
  H  H24  1  0.62343036  0.98960508  0.49226493  1 0.080789
  H  H25  1  0.17979721  0.59744202  0.17592218  1 0.083878
  H  H26  1  0.18497016  0.75338211  0.98611969  1 0.080791
  H  H27  1  0.86309763  0.43511352  0.22244187  1 0.083945
  H  H28  1  0.86630869  0.24704281  0.20087500  1 0.080822
  H  H29  1  0.60647385  0.97061355  0.17549792  1 0.083847
  H  H30  1  0.71894573  0.81787298  0.08230358  1 0.080788
  H  H31  1  0.47160306  0.06460579  0.22376313  1 0.083879
  H  H32  1  0.32369775  0.18663161  0.23297223  1 0.080798
  C  C33  1  0.02080702  0.42098952  0.33164749  1 -0.128187
  C  C34  1  0.08336406  0.32463547  0.34052094  1 0.000695
  C  C35  1  0.01834062  0.65136889  0.22164440  1 -0.128296
  C  C36  1  0.96652417  0.73729441  0.13572513  1 0.000694
  C  C37  1  0.60575024  0.01605523  0.90086022  1 -0.128201
  C  C38  1  0.67052821  0.97133543  0.76125616  1 0.000701
  C  C39  1  0.35289296  0.95480204  0.12640733  1 -0.128167
  C  C40  1  0.24499129  0.97864898  0.08849487  1 0.00071
  C  C41  1  0.04612015  0.32268964  0.93591874  1 -0.128198
  C  C42  1  0.96528907  0.27210000  0.99163995  1 0.000745
  C  C43  1  0.03532341  0.58613804  0.79810944  1 -0.128228
  C  C44  1  0.11676471  0.64538923  0.81549581  1 0.000641
  C  C45  1  0.37086857  0.15175296  0.83132534  1 -0.128175
  C  C46  1  0.36264605  0.20457776  0.97222261  1 0.000731
  C  C47  1  0.51616800  0.85846498  0.81425504  1 -0.128214
  C  C48  1  0.61603186  0.80501884  0.85441409  1 0.000668
  C  C49  1  0.96267013  0.59162647  0.94158032  1 -0.12814
  C  C50  1  0.93548904  0.70315946  0.96699380  1 0.000671
  C  C51  1  0.10422786  0.38666195  0.05900597  1 -0.12817
  C  C52  1  0.15728390  0.32634727  0.19722778  1 0.000658
  C  C53  1  0.34668312  0.04113518  0.85071803  1 -0.128124
  C  C54  1  0.24090045  0.03285235  0.92699967  1 0.000713
  C  C55  1  0.52389406  0.89679580  0.63857276  1 -0.128131
  C  C56  1  0.60451664  0.95580528  0.61125466  1 0.000703
  C  C57  1  0.11169439  0.62881741  0.12051759  1 -0.128152
  C  C58  1  0.11905744  0.70371897  0.97585551  1 0.000729
  C  C59  1  0.93586988  0.39695874  0.21475991  1 -0.128266
  C  C60  1  0.93931495  0.28340286  0.17441707  1 0.00063
  C  C61  1  0.60694832  0.94500400  0.04718163  1 -0.128144
  C  C62  1  0.66844290  0.85528087  0.99555586  1 0.00072
  C  C63  1  0.40751139  0.05480176  0.14113533  1 -0.128161
  C  C64  1  0.33335155  0.14200030  0.12030362  1 0.000655
  C  C65  1  0.02682995  0.45485882  0.15312073  1 0.073504
  C  C66  1  0.02019752  0.56262171  0.10238704  1 0.07347
  C  C67  1  0.51539591  0.95012375  0.93422326  1 0.073484
  C  C68  1  0.41734365  0.99506756  0.98465184  1 0.073439
  N  N69  1  0.01646996  0.23896087  0.28668358  1 -0.153929
  N  N70  1  0.02539072  0.76762750  0.98655404  1 -0.153929
  N  N71  1  0.70444298  0.86931706  0.82291153  1 -0.153978
  N  N72  1  0.23283821  0.09154061  0.08308486  1 -0.15397
