# generated using pymatgen
data_V8NiH16C20N4O13
_symmetry_space_group_name_H-M   'P 1'
_cell_length_a   16.97822114
_cell_length_b   16.97891774
_cell_length_c   14.81973009
_cell_angle_alpha   89.99266362
_cell_angle_beta   90.00546947
_cell_angle_gamma   90.01262611
_symmetry_Int_Tables_number   1
_chemical_formula_structural   V8NiH16C20N4O13
_chemical_formula_sum   'V32 Ni4 H64 C80 N16 O52'
_cell_volume   4272.11041047
_cell_formula_units_Z   4
loop_
 _symmetry_equiv_pos_site_id
 _symmetry_equiv_pos_as_xyz
  1  'x, y, z'
loop_
 _atom_site_type_symbol
 _atom_site_label
 _atom_site_symmetry_multiplicity
 _atom_site_fract_x
 _atom_site_fract_y
 _atom_site_fract_z
 _atom_site_occupancy
 _atom_site_charge
  V  V0  1  0.88547778  0.12344197  0.13214791  1 1.764677
  V  V1  1  0.04734492  0.15184370  0.08113035  1 1.00253
  V  V2  1  0.84818302  0.96326336  0.07977431  1 0.993594
  V  V3  1  0.05951273  0.05693006  0.22843413  1 1.259781
  V  V4  1  0.11452740  0.87661949  0.13218424  1 1.76095
  V  V5  1  0.95291737  0.84829476  0.08116683  1 0.998022
  V  V6  1  0.15167354  0.03646643  0.07980795  1 0.99001
  V  V7  1  0.94052181  0.94306784  0.22846826  1 1.261275
  V  V8  1  0.12340521  0.11452193  0.86788839  1 1.767006
  V  V9  1  0.15192149  0.95263538  0.91890125  1 0.998839
  V  V10  1  0.96331945  0.15182813  0.92021746  1 0.993397
  V  V11  1  0.05682684  0.94062824  0.77157688  1 1.258433
  V  V12  1  0.87656539  0.88550989  0.86789116  1 1.763305
  V  V13  1  0.84815863  0.04731936  0.91886460  1 0.998402
  V  V14  1  0.03674343  0.84809227  0.92029073  1 0.998547
  V  V15  1  0.94315389  0.05941283  0.77152528  1 1.259224
  V  V16  1  0.38550574  0.37656015  0.63210698  1 1.766557
  V  V17  1  0.54730871  0.34814789  0.58113476  1 0.997088
  V  V18  1  0.34808494  0.53675174  0.57971452  1 0.995854
  V  V19  1  0.55940214  0.44314359  0.72847730  1 1.261171
  V  V20  1  0.61451897  0.62340499  0.63211066  1 1.764103
  V  V21  1  0.45264334  0.65194602  0.58109763  1 1.000911
  V  V22  1  0.65182787  0.46331206  0.57976314  1 0.994366
  V  V23  1  0.44063084  0.55682357  0.72844466  1 1.259041
  V  V24  1  0.62344167  0.38548120  0.36785403  1 1.765356
  V  V25  1  0.65185428  0.54733831  0.41886385  1 1.000856
  V  V26  1  0.46327087  0.34816837  0.42023737  1 0.996075
  V  V27  1  0.55693331  0.55951088  0.27156001  1 1.261049
  V  V28  1  0.37661709  0.61453350  0.36781895  1 1.762595
  V  V29  1  0.34828977  0.45289463  0.41883791  1 0.995455
  V  V30  1  0.53646574  0.65167482  0.42019604  1 0.990861
  V  V31  1  0.44307300  0.44051834  0.27151897  1 1.259778
  Ni  Ni32  1  0.75407282  0.25407467  0.25000043  1 0.660969
  Ni  Ni33  1  0.24597588  0.74597561  0.24999825  1 0.672942
  Ni  Ni34  1  0.25406624  0.24593316  0.74999745  1 0.707986
  Ni  Ni35  1  0.74593048  0.75406783  0.75000142  1 0.682415
  H  H36  1  0.27368871  0.17882638  0.94404727  1 0.096413
  H  H37  1  0.37797940  0.17405425  0.06056843  1 0.118287
  H  H38  1  0.54472592  0.23780433  0.85188715  1 0.115183
  H  H39  1  0.43290681  0.24241598  0.74539079  1 0.102647
  H  H40  1  0.57549663  0.25765940  0.25276087  1 0.103627
  H  H41  1  0.46372515  0.24859022  0.14713466  1 0.112148
  H  H42  1  0.62861475  0.16668700  0.94495722  1 0.113636
  H  H43  1  0.73309563  0.17708012  0.06045274  1 0.096817
  H  H44  1  0.72630229  0.82116983  0.94403930  1 0.095614
  H  H45  1  0.62202081  0.82594537  0.06055460  1 0.117708
  H  H46  1  0.45528742  0.76220098  0.85189388  1 0.114532
  H  H47  1  0.56709887  0.75758257  0.74540480  1 0.102223
  H  H48  1  0.42449222  0.74233370  0.25276686  1 0.1038
  H  H49  1  0.53627923  0.75140998  0.14712889  1 0.113558
  H  H50  1  0.37139181  0.83330973  0.94495002  1 0.114031
  H  H51  1  0.26690271  0.82291607  0.06045850  1 0.096954
  H  H52  1  0.17883422  0.72629762  0.05596042  1 0.095837
  H  H53  1  0.17405753  0.62201459  0.93943206  1 0.117576
  H  H54  1  0.23780031  0.45527996  0.14810146  1 0.114569
  H  H55  1  0.24242282  0.56710339  0.25459915  1 0.102295
  H  H56  1  0.25766290  0.42450468  0.74722744  1 0.104403
  H  H57  1  0.24859164  0.53627869  0.85286296  1 0.113668
  H  H58  1  0.16668571  0.37138301  0.05504898  1 0.114781
  H  H59  1  0.17707600  0.26689180  0.93955156  1 0.097772
  H  H60  1  0.82116753  0.27370477  0.05595625  1 0.095407
  H  H61  1  0.82594612  0.37798044  0.93943836  1 0.116962
  H  H62  1  0.76219913  0.54471283  0.14810666  1 0.114345
  H  H63  1  0.75758451  0.43290478  0.25459712  1 0.101771
  H  H64  1  0.74233878  0.57550251  0.74723686  1 0.103522
  H  H65  1  0.75140902  0.46372586  0.85286250  1 0.112721
  H  H66  1  0.83331093  0.62861369  0.05503836  1 0.114425
  H  H67  1  0.82292060  0.73309865  0.93954012  1 0.096891
  H  H68  1  0.77370124  0.32116888  0.44404551  1 0.095539
  H  H69  1  0.87797865  0.32594647  0.56056178  1 0.117034
  H  H70  1  0.04471596  0.26219881  0.35189270  1 0.113857
  H  H71  1  0.93290622  0.25758480  0.24540300  1 0.101841
  H  H72  1  0.07549560  0.24233792  0.75277541  1 0.104029
  H  H73  1  0.96371389  0.25140527  0.64714017  1 0.11371
  H  H74  1  0.12861514  0.33331388  0.44494839  1 0.114921
  H  H75  1  0.23311004  0.32292544  0.56044949  1 0.09775
  H  H76  1  0.22629928  0.67883466  0.44403847  1 0.09574
  H  H77  1  0.12201405  0.67405750  0.56056875  1 0.117433
  H  H78  1  0.95527769  0.73780188  0.35189815  1 0.115163
  H  H79  1  0.06710427  0.74242301  0.24539919  1 0.102201
  H  H80  1  0.92449788  0.75766193  0.75276077  1 0.103815
  H  H81  1  0.03627118  0.74858923  0.64713397  1 0.112977
  H  H82  1  0.87138355  0.66668832  0.44496324  1 0.114179
  H  H83  1  0.76689788  0.67707963  0.56045798  1 0.096868
  H  H84  1  0.67882973  0.77370116  0.55596301  1 0.095585
  H  H85  1  0.67405509  0.87798142  0.43944356  1 0.117769
  H  H86  1  0.73780065  0.04471467  0.64810919  1 0.114402
  H  H87  1  0.74241540  0.93290016  0.75459679  1 0.102023
  H  H88  1  0.75765888  0.07549875  0.24723779  1 0.103536
  H  H89  1  0.74858973  0.96372856  0.35286563  1 0.112779
  H  H90  1  0.66668644  0.12861389  0.55504335  1 0.113459
  H  H91  1  0.67708093  0.23309296  0.43954584  1 0.096726
  H  H92  1  0.32117232  0.22630943  0.55595015  1 0.096444
  H  H93  1  0.32594614  0.12202259  0.43943285  1 0.118147
  H  H94  1  0.26219790  0.95528074  0.64810862  1 0.115332
  H  H95  1  0.25758234  0.06709314  0.75460651  1 0.102815
  H  H96  1  0.24233364  0.92449344  0.24723480  1 0.103879
  H  H97  1  0.25140981  0.03627809  0.35287117  1 0.113068
  H  H98  1  0.33330935  0.87139101  0.55504920  1 0.114143
  H  H99  1  0.32291604  0.76690469  0.43954275  1 0.09711
  C  C100  1  0.33426555  0.19358681  0.92689124  1 0.094856
  C  C101  1  0.39341117  0.19030629  0.99167057  1 -0.177402
  C  C102  1  0.47168359  0.20694687  0.96743882  1 0.101898
  C  C103  1  0.48575552  0.22380670  0.87609472  1 -0.170922
  C  C104  1  0.42318959  0.22678312  0.81564186  1 0.108842
  C  C105  1  0.58500670  0.23719982  0.18417111  1 0.108701
  C  C106  1  0.52231653  0.23173533  0.12413159  1 -0.173238
  C  C107  1  0.53584874  0.20844354  0.03456527  1 0.098074
  C  C108  1  0.61366623  0.18826074  0.01204365  1 -0.176952
  C  C109  1  0.67299241  0.19462108  0.07627961  1 0.092027
  C  C110  1  0.66572682  0.80640779  0.92688388  1 0.095196
  C  C111  1  0.60659526  0.80970148  0.99165393  1 -0.178108
  C  C112  1  0.52831791  0.79305361  0.96743294  1 0.099377
  C  C113  1  0.51426128  0.77619672  0.87609081  1 -0.171352
  C  C114  1  0.57681654  0.77321388  0.81565232  1 0.108436
  C  C115  1  0.41499530  0.76280358  0.18416221  1 0.109539
  C  C116  1  0.47768834  0.76826739  0.12413373  1 -0.173257
  C  C117  1  0.46414918  0.79155677  0.03456569  1 0.100816
  C  C118  1  0.38633953  0.81174214  0.01204240  1 -0.177063
  C  C119  1  0.32701979  0.80538599  0.07628318  1 0.092158
  C  C120  1  0.19358533  0.66571061  0.07313192  1 0.095177
  C  C121  1  0.19029126  0.60658688  0.00834286  1 -0.177358
  C  C122  1  0.20694343  0.52832354  0.03256401  1 0.09859
  C  C123  1  0.22379198  0.51425363  0.12391092  1 -0.17077
  C  C124  1  0.22677586  0.57682334  0.18433460  1 0.10887
  C  C125  1  0.23720201  0.41501319  0.81582035  1 0.110133
  C  C126  1  0.23174335  0.47768842  0.87587433  1 -0.173181
  C  C127  1  0.20844544  0.46415008  0.96542879  1 0.10233
  C  C128  1  0.18825962  0.38633951  0.98796496  1 -0.176996
  C  C129  1  0.19460832  0.32700338  0.92373852  1 0.092841
  C  C130  1  0.80640605  0.33427407  0.07312809  1 0.093978
  C  C131  1  0.80970134  0.39340660  0.00834351  1 -0.178566
  C  C132  1  0.79305462  0.47168347  0.03255751  1 0.098769
  C  C133  1  0.77620387  0.48574141  0.12391039  1 -0.171407
  C  C134  1  0.77321922  0.42317176  0.18434993  1 0.107534
  C  C135  1  0.76279421  0.58499772  0.81583017  1 0.109421
  C  C136  1  0.76825636  0.52231368  0.87586679  1 -0.173739
  C  C137  1  0.79155524  0.53584936  0.96543161  1 0.100455
  C  C138  1  0.81173173  0.61366583  0.98795981  1 -0.177342
  C  C139  1  0.80537913  0.67299307  0.92373496  1 0.092147
  C  C140  1  0.83427195  0.30640627  0.42687183  1 0.094199
  C  C141  1  0.89340464  0.30970310  0.49165574  1 -0.177851
  C  C142  1  0.97168254  0.29305460  0.46744041  1 0.097368
  C  C143  1  0.98574193  0.27620350  0.37608934  1 -0.171117
  C  C144  1  0.92317279  0.27321994  0.31565009  1 0.107676
  C  C145  1  0.08498845  0.26279618  0.68418070  1 0.110231
  C  C146  1  0.02230228  0.26825474  0.62412766  1 -0.173385
  C  C147  1  0.03584676  0.29155461  0.53456567  1 0.102695
  C  C148  1  0.11366121  0.31173296  0.51202838  1 -0.17695
  C  C149  1  0.17300030  0.30538791  0.57625959  1 0.092561
  C  C150  1  0.16571175  0.69358483  0.42686668  1 0.094813
  C  C151  1  0.10658734  0.69029207  0.49165846  1 -0.178053
  C  C152  1  0.02832118  0.70694475  0.46743715  1 0.10012
  C  C153  1  0.01425092  0.72379265  0.37608925  1 -0.170945
  C  C154  1  0.07682335  0.72677642  0.31566315  1 0.108753
  C  C155  1  0.91500409  0.73720453  0.68417012  1 0.109671
  C  C156  1  0.97767934  0.73174235  0.62413037  1 -0.173558
  C  C157  1  0.96414878  0.70844620  0.53457389  1 0.100062
  C  C158  1  0.88633221  0.68826030  0.51204628  1 -0.177286
  C  C159  1  0.82700684  0.69461706  0.57626861  1 0.092336
  C  C160  1  0.69359516  0.83427320  0.57311419  1 0.094508
  C  C161  1  0.69030558  0.89340706  0.50834053  1 -0.178008
  C  C162  1  0.70694524  0.97168223  0.53256317  1 0.099758
  C  C163  1  0.72380431  0.98574512  0.62391057  1 -0.171505
  C  C164  1  0.72678623  0.92318072  0.68434723  1 0.108364
  C  C165  1  0.73719919  0.08500820  0.31582784  1 0.108577
  C  C166  1  0.73173471  0.02231732  0.37586774  1 -0.173487
  C  C167  1  0.70844285  0.03584793  0.46543685  1 0.099322
  C  C168  1  0.68826143  0.11366528  0.48795724  1 -0.177635
  C  C169  1  0.69462007  0.17299100  0.42372076  1 0.091505
  C  C170  1  0.30641647  0.16573131  0.57310877  1 0.095344
  C  C171  1  0.30970008  0.10658895  0.50833474  1 -0.177461
  C  C172  1  0.29305285  0.02831789  0.53256465  1 0.101445
  C  C173  1  0.27619416  0.01425331  0.62390414  1 -0.170728
  C  C174  1  0.27321764  0.07680849  0.68435676  1 0.109199
  C  C175  1  0.26280357  0.91499573  0.31584035  1 0.10965
  C  C176  1  0.26826649  0.97768661  0.37586585  1 -0.173052
  C  C177  1  0.29155707  0.96414686  0.46543191  1 0.099407
  C  C178  1  0.31174239  0.88634040  0.48795589  1 -0.176435
  C  C179  1  0.30538510  0.82702110  0.42371760  1 0.09253
  N  N180  1  0.65989855  0.22090506  0.16081684  1 -0.208295
  N  N181  1  0.34792616  0.21361684  0.84020689  1 -0.210351
  N  N182  1  0.34009047  0.77907299  0.16081634  1 -0.210321
  N  N183  1  0.65204035  0.78638495  0.84024747  1 -0.210273
  N  N184  1  0.22090593  0.34006794  0.83914957  1 -0.212335
  N  N185  1  0.21365587  0.65203402  0.15973571  1 -0.2088
  N  N186  1  0.77911448  0.65989787  0.83917189  1 -0.212504
  N  N187  1  0.78636648  0.34796177  0.15975340  1 -0.207091
  N  N188  1  0.15993543  0.27910356  0.66086187  1 -0.212821
  N  N189  1  0.84796088  0.28636808  0.34024996  1 -0.206426
  N  N190  1  0.84009967  0.72089415  0.66081708  1 -0.212026
  N  N191  1  0.15203817  0.71365679  0.34026076  1 -0.209053
  N  N192  1  0.72090577  0.15989863  0.33917933  1 -0.208917
  N  N193  1  0.71360655  0.84796189  0.65976001  1 -0.210454
  N  N194  1  0.27907380  0.84009488  0.33918712  1 -0.210147
  N  N195  1  0.28637533  0.15207130  0.65978483  1 -0.210453
  O  O196  1  0.82512670  0.18482516  0.18554277  1 -0.749583
  O  O197  1  0.98712804  0.13531469  0.19023867  1 -0.946528
  O  O198  1  0.93918316  0.18266667  0.03883466  1 -0.902919
  O  O199  1  0.86960401  0.02199042  0.18853674  1 -0.951797
  O  O200  1  0.82285323  0.07344839  0.03821482  1 -0.904068
  O  O201  1  0.13697209  0.12785334  0.15145612  1 -0.846805
  O  O202  1  0.17477436  0.81519370  0.18546302  1 -0.752442
  O  O203  1  0.01279365  0.86467001  0.19026485  1 -0.946572
  O  O204  1  0.06072490  0.81729698  0.03872193  1 -0.903031
  O  O205  1  0.13040439  0.97805350  0.18859141  1 -0.951963
  O  O206  1  0.17716814  0.92664532  0.03810675  1 -0.904451
  O  O207  1  0.86296717  0.87220871  0.15146783  1 -0.844531
  O  O208  1  0.18484105  0.17487828  0.81445732  1 -0.761734
  O  O209  1  0.13534604  0.01284904  0.80978362  1 -0.947138
  O  O210  1  0.18264356  0.06081897  0.96110404  1 -0.902779
  O  O211  1  0.02197460  0.13041743  0.81146767  1 -0.952566
  O  O212  1  0.07345579  0.17714555  0.96180225  1 -0.905518
  O  O213  1  0.12778858  0.86303883  0.84852710  1 -0.845839
  O  O214  1  0.81516999  0.82513346  0.81446545  1 -0.753812
  O  O215  1  0.86466388  0.98716154  0.80977230  1 -0.94581
  O  O216  1  0.81733351  0.93917102  0.96117648  1 -0.901795
  O  O217  1  0.97800047  0.86955481  0.81148234  1 -0.952108
  O  O218  1  0.92654282  0.82287563  0.96170566  1 -0.904638
  O  O219  1  0.87219708  0.13697303  0.84855557  1 -0.845031
  O  O220  1  0.32512479  0.31516196  0.68554508  1 -0.761756
  O  O221  1  0.48716394  0.36466821  0.69022592  1 -0.947177
  O  O222  1  0.43917513  0.31733361  0.53881982  1 -0.903257
  O  O223  1  0.36956575  0.47801037  0.68851755  1 -0.95316
  O  O224  1  0.32288364  0.42654504  0.53829236  1 -0.904749
  O  O225  1  0.63696703  0.37219899  0.65143998  1 -0.845085
  O  O226  1  0.67486375  0.68482805  0.68552922  1 -0.753618
  O  O227  1  0.51285947  0.63535654  0.69022350  1 -0.946211
  O  O228  1  0.56083480  0.68264900  0.53891087  1 -0.902007
  O  O229  1  0.63041712  0.52198641  0.68853124  1 -0.952367
  O  O230  1  0.67714517  0.57346651  0.53820881  1 -0.904174
  O  O231  1  0.36304722  0.62778012  0.65147489  1 -0.846218
  O  O232  1  0.68482235  0.32513054  0.31445850  1 -0.74968
  O  O233  1  0.63531189  0.48712838  0.30976297  1 -0.946599
  O  O234  1  0.68266603  0.43918395  0.46115658  1 -0.902697
  O  O235  1  0.52199676  0.36960358  0.31146139  1 -0.951836
  O  O236  1  0.57345403  0.32285172  0.46178124  1 -0.904035
  O  O237  1  0.62785364  0.63696881  0.34854049  1 -0.845106
  O  O238  1  0.31519241  0.67477554  0.31453593  1 -0.752792
  O  O239  1  0.36468056  0.51279304  0.30973601  1 -0.946127
  O  O240  1  0.31729567  0.56072566  0.46127299  1 -0.902768
  O  O241  1  0.47805883  0.63039921  0.31140575  1 -0.952967
  O  O242  1  0.42664200  0.67716861  0.46189064  1 -0.904975
  O  O243  1  0.37221680  0.36297304  0.34854153  1 -0.846343
  O  O244  1  0.99998958  0.00000663  0.30687545  1 -0.791936
  O  O245  1  0.00000176  -0.00000435  0.69312798  1 -0.791517
  O  O246  1  0.49999303  0.50000685  0.80688164  1 -0.792165
  O  O247  1  0.50001266  0.49999338  0.19312112  1 -0.791919
