# generated using pymatgen
data_CuH6C8(N2O)2
_symmetry_space_group_name_H-M   'P 1'
_cell_length_a   15.85552557
_cell_length_b   15.85553425
_cell_length_c   15.85571016
_cell_angle_alpha   89.99860258
_cell_angle_beta   90.00080491
_cell_angle_gamma   90.00162380
_symmetry_Int_Tables_number   1
_chemical_formula_structural   CuH6C8(N2O)2
_chemical_formula_sum   'Cu12 H72 C96 N48 O24'
_cell_volume   3986.09110467
_cell_formula_units_Z   12
loop_
 _symmetry_equiv_pos_site_id
 _symmetry_equiv_pos_as_xyz
  1  'x, y, z'
loop_
 _atom_site_type_symbol
 _atom_site_label
 _atom_site_symmetry_multiplicity
 _atom_site_fract_x
 _atom_site_fract_y
 _atom_site_fract_z
 _atom_site_occupancy
 _atom_site_charge
  Cu  Cu0  1  0.49999026  0.75002058  0.25003572  1 0.677266
  Cu  Cu1  1  0.00001003  0.74998157  0.25003714  1 0.676524
  Cu  Cu2  1  0.24999047  0.50000154  0.75001065  1 0.684144
  Cu  Cu3  1  0.24994672  0.00000431  0.75005583  1 0.684901
  Cu  Cu4  1  0.75003039  0.25002249  0.49998756  1 0.670558
  Cu  Cu5  1  0.74997114  0.25001702  -0.00001134  1 0.664762
  Cu  Cu6  1  0.50000993  0.25001561  0.75003069  1 0.667989
  Cu  Cu7  1  0.00001259  0.25002491  0.74997246  1 0.680552
  Cu  Cu8  1  0.75002177  0.49999231  0.25003289  1 0.673018
  Cu  Cu9  1  0.74997959  0.00001347  0.25003393  1 0.669451
  Cu  Cu10  1  0.24999716  0.75000282  0.49997518  1 0.687185
  Cu  Cu11  1  0.24999753  0.74999841  -0.00002508  1 0.67853
  H  H12  1  0.42707000  0.92536724  0.26648841  1 0.103448
  H  H13  1  0.07293004  0.57463278  0.26648851  1 0.10339
  H  H14  1  0.07293429  0.92537313  0.23350576  1 0.103059
  H  H15  1  0.42706536  0.57462713  0.23350579  1 0.103238
  H  H16  1  0.26649541  0.42706296  0.92536901  1 0.103216
  H  H17  1  0.26649595  0.07293473  0.57462635  1 0.1033
  H  H18  1  0.23351044  0.07293157  0.92536492  1 0.103429
  H  H19  1  0.23351156  0.42707179  0.57463032  1 0.103334
  H  H20  1  0.92536971  0.26649259  0.42706395  1 0.103994
  H  H21  1  0.57463411  0.26649093  0.07293149  1 0.104365
  H  H22  1  0.92536948  0.23350885  0.07292960  1 0.104295
  H  H23  1  0.57462717  0.23350629  0.42706661  1 0.103749
  H  H24  1  0.42537378  0.92706689  0.73350462  1 0.102944
  H  H25  1  0.07463076  0.57293726  0.73350460  1 0.103177
  H  H26  1  0.42536811  0.57292866  0.76648961  1 0.102954
  H  H27  1  0.07463532  0.92706912  0.76648888  1 0.103193
  H  H28  1  0.92707104  0.76649201  0.07463047  1 0.103755
  H  H29  1  0.57293336  0.76649226  0.42536501  1 0.104009
  H  H30  1  0.57292886  0.73350831  0.07463049  1 0.103795
  H  H31  1  0.92706708  0.73350796  0.42536553  1 0.103797
  H  H32  1  0.76648934  0.42536687  0.57292895  1 0.104006
  H  H33  1  0.76649485  0.07462823  0.92706439  1 0.104231
  H  H34  1  0.73351215  0.42536773  0.92707139  1 0.103744
  H  H35  1  0.73350135  0.07463061  0.57293863  1 0.103621
  H  H36  1  0.57293514  0.07462782  0.73350549  1 0.104436
  H  H37  1  0.92707149  0.42536710  0.73351114  1 0.103864
  H  H38  1  0.92706109  0.07463071  0.76649848  1 0.10367
  H  H39  1  0.57292881  0.42536780  0.76648782  1 0.10418
  H  H40  1  0.73350789  0.57292939  0.07463117  1 0.103628
  H  H41  1  0.73350818  0.92706724  0.42536568  1 0.103786
  H  H42  1  0.76649178  0.92707135  0.07463082  1 0.103629
  H  H43  1  0.76649237  0.57293352  0.42536539  1 0.103717
  H  H44  1  0.07463357  0.73350725  0.57293132  1 0.103146
  H  H45  1  0.42537148  0.73350828  0.92706656  1 0.103187
  H  H46  1  0.07462842  0.76649261  0.92706478  1 0.103061
  H  H47  1  0.42536580  0.76649276  0.57293047  1 0.103076
  H  H48  1  0.57463222  0.07293024  0.26648868  1 0.104399
  H  H49  1  0.92536802  0.42707015  0.26648782  1 0.10418
  H  H50  1  0.57462736  0.42706532  0.23350583  1 0.103807
  H  H51  1  0.92537231  0.07293576  0.23350515  1 0.103987
  H  H52  1  0.07293455  0.23350538  0.92537283  1 0.103009
  H  H53  1  0.42707073  0.23350883  0.57463092  1 0.103312
  H  H54  1  0.42706776  0.26649160  0.92536585  1 0.103416
  H  H55  1  0.07293571  0.26649251  0.57463064  1 0.103313
  H  H56  1  0.23350795  0.57462769  0.42706598  1 0.103365
  H  H57  1  0.23350794  0.92536603  0.07293120  1 0.103562
  H  H58  1  0.26649167  0.57463379  0.07293072  1 0.103569
  H  H59  1  0.26649157  0.92537279  0.42706679  1 0.103212
  H  H60  1  0.31239167  0.00642992  0.18760600  1 0.111403
  H  H61  1  0.18760842  0.49356972  0.18760581  1 0.111352
  H  H62  1  0.18760341  0.00641087  0.31239493  1 0.111514
  H  H63  1  0.31239614  0.49358893  0.31239431  1 0.111647
  H  H64  1  0.18760291  0.31239418  0.00640908  1 0.111472
  H  H65  1  0.18760544  0.18760119  0.49359041  1 0.111606
  H  H66  1  0.31239440  0.18760714  0.00643002  1 0.111703
  H  H67  1  0.31239320  0.31239220  0.49357338  1 0.111663
  H  H68  1  0.00641081  0.18760229  0.31239543  1 0.111551
  H  H69  1  0.49357009  0.18760706  0.18760687  1 0.111526
  H  H70  1  0.00642773  0.31239072  0.18760611  1 0.111593
  H  H71  1  0.49359126  0.31239499  0.31239575  1 0.111524
  H  H72  1  0.50640972  0.81239748  0.81239360  1 0.111298
  H  H73  1  0.99358903  0.68760458  0.81239545  1 0.111281
  H  H74  1  0.50642957  0.68760726  0.68760710  1 0.111493
  H  H75  1  0.99356927  0.81239215  0.68760459  1 0.11166
  H  H76  1  0.81239341  0.68760673  0.99357291  1 0.111558
  H  H77  1  0.68760627  0.68760589  0.50642959  1 0.111826
  H  H78  1  0.68760632  0.81239380  0.99357297  1 0.11183
  H  H79  1  0.81239434  0.81239469  0.50642988  1 0.111783
  H  H80  1  0.68760732  0.50642892  0.68760592  1 0.111312
  H  H81  1  0.68760497  0.99358972  0.81239475  1 0.111352
  H  H82  1  0.81239441  0.50642873  0.81239268  1 0.111628
  H  H83  1  0.81239649  0.99359245  0.68760347  1 0.111473
  C  C84  1  0.39162047  0.89798844  0.21410134  1 0.156574
  C  C85  1  0.10838010  0.60201123  0.21410090  1 0.156323
  C  C86  1  0.10836480  0.89799220  0.28588954  1 0.156598
  C  C87  1  0.39163544  0.60200832  0.28588947  1 0.156745
  C  C88  1  0.21410930  0.39162966  0.89799303  1 0.156731
  C  C89  1  0.21411424  0.10836110  0.60200488  1 0.156895
  C  C90  1  0.28589637  0.10838129  0.89799159  1 0.156701
  C  C91  1  0.28589382  0.39162554  0.60200858  1 0.156936
  C  C92  1  0.89800190  0.21410921  0.39162879  1 0.155686
  C  C93  1  0.60201459  0.21410623  0.10837978  1 0.155245
  C  C94  1  0.89798566  0.28589053  0.10837234  1 0.156045
  C  C95  1  0.60199859  0.28588756  0.39163739  1 0.156007
  C  C96  1  0.39799365  0.89163921  0.78588538  1 0.15699
  C  C97  1  0.10200567  0.60836996  0.78588961  1 0.156742
  C  C98  1  0.39799144  0.60837523  0.71410689  1 0.156948
  C  C99  1  0.10200954  0.89161776  0.71410369  1 0.156885
  C  C100  1  0.89162913  0.71410881  0.10201565  1 0.156888
  C  C101  1  0.60837967  0.71410557  0.39798670  1 0.156499
  C  C102  1  0.60837121  0.78589115  0.10201490  1 0.156881
  C  C103  1  0.89161975  0.78589451  0.39798779  1 0.156024
  C  C104  1  0.71410902  0.39799551  0.60837660  1 0.155592
  C  C105  1  0.71410919  0.10200810  0.89163416  1 0.155421
  C  C106  1  0.78589838  0.39798818  0.89162183  1 0.155569
  C  C107  1  0.78588418  0.10200153  0.60836502  1 0.155727
  C  C108  1  0.60836544  0.10200799  0.78589027  1 0.155752
  C  C109  1  0.89162357  0.39799581  0.78589047  1 0.156745
  C  C110  1  0.89163468  0.10200142  0.71411575  1 0.156345
  C  C111  1  0.60837809  0.39798796  0.71410170  1 0.155545
  C  C112  1  0.78589088  0.60837166  0.10201426  1 0.156394
  C  C113  1  0.78589351  0.89162097  0.39798724  1 0.155454
  C  C114  1  0.71410917  0.89162900  0.10201563  1 0.156157
  C  C115  1  0.71410610  0.60838004  0.39798849  1 0.155929
  C  C116  1  0.10201052  0.78588899  0.60837742  1 0.156798
  C  C117  1  0.39799571  0.78589423  0.89163303  1 0.156484
  C  C118  1  0.10200129  0.71410639  0.89163337  1 0.156327
  C  C119  1  0.39798617  0.71411039  0.60837666  1 0.156539
  C  C120  1  0.60200998  0.10837785  0.21410249  1 0.155966
  C  C121  1  0.89798979  0.39162100  0.21410132  1 0.156212
  C  C122  1  0.60200852  0.39163439  0.28589078  1 0.156034
  C  C123  1  0.89799280  0.10836490  0.28589010  1 0.155685
  C  C124  1  0.10836192  0.28588711  0.89800313  1 0.156465
  C  C125  1  0.39162739  0.28589098  0.60201537  1 0.155915
  C  C126  1  0.39162020  0.21410664  0.89798659  1 0.155513
  C  C127  1  0.10837090  0.21410891  0.60200000  1 0.156517
  C  C128  1  0.28589396  0.60200256  0.39163221  1 0.156841
  C  C129  1  0.28588945  0.89798765  0.10837712  1 0.156275
  C  C130  1  0.21411127  0.60201235  0.10837640  1 0.156248
  C  C131  1  0.21410701  0.89799782  0.39163307  1 0.156838
  C  C132  1  0.37310432  0.77805690  0.12689660  1 0.593705
  C  C133  1  0.32876568  0.94198315  0.17123195  1 -0.258807
  C  C134  1  0.12689591  0.72194339  0.12689612  1 0.59339
  C  C135  1  0.17123387  0.55801717  0.17123255  1 -0.258687
  C  C136  1  0.12691572  0.77812334  0.37308797  1 0.594118
  C  C137  1  0.17122020  0.94195717  0.32877782  1 -0.259084
  C  C138  1  0.37308423  0.72187674  0.37308724  1 0.594387
  C  C139  1  0.32877976  0.55804207  0.32877859  1 -0.259109
  C  C140  1  0.12690709  0.37308303  0.77811814  1 0.594257
  C  C141  1  0.17121263  0.32878111  0.94195930  1 -0.25941
  C  C142  1  0.12691128  0.12691175  0.72188426  1 0.594012
  C  C143  1  0.17122034  0.17121469  0.55804241  1 -0.259308
  C  C144  1  0.37309933  0.12689640  0.77806874  1 0.594316
  C  C145  1  0.32876978  0.17123167  0.94198601  1 -0.258733
  C  C146  1  0.37310189  0.37310621  0.72194638  1 0.59328
  C  C147  1  0.32876531  0.32876514  0.55802471  1 -0.259404
  C  C148  1  0.77812405  0.12691493  0.37308795  1 0.592654
  C  C149  1  0.94196017  0.17121664  0.32878159  1 -0.258464
  C  C150  1  0.72193163  0.12689643  0.12690201  1 0.592281
  C  C151  1  0.55801691  0.17123263  0.17123440  1 -0.257688
  C  C152  1  0.77806174  0.37310229  0.12689849  1 0.592485
  C  C153  1  0.94197806  0.32876445  0.17123370  1 -0.257906
  C  C154  1  0.72188433  0.37308362  0.37309218  1 0.592623
  C  C155  1  0.55804470  0.32877962  0.32878227  1 -0.258532
  C  C156  1  0.27811542  0.87308725  0.87308890  1 0.593851
  C  C157  1  0.44195517  0.82878160  0.82877770  1 -0.259187
  C  C158  1  0.22187364  0.62691729  0.87308857  1 0.593794
  C  C159  1  0.05803865  0.67121765  0.82878384  1 -0.259166
  C  C160  1  0.27804813  0.62689073  0.62689673  1 0.594319
  C  C161  1  0.44198100  0.67123157  0.67123384  1 -0.259369
  C  C162  1  0.22194367  0.87310602  0.62689562  1 0.594322
  C  C163  1  0.05801468  0.82876665  0.67122872  1 -0.259228
  C  C164  1  0.87310344  0.62689604  0.22194139  1 0.592859
  C  C165  1  0.82876790  0.67123116  0.05802739  1 -0.258733
  C  C166  1  0.62689993  0.62689998  0.27807750  1 0.594042
  C  C167  1  0.67122763  0.67122578  0.44198389  1 -0.258668
  C  C168  1  0.62689621  0.87310428  0.22194151  1 0.593172
  C  C169  1  0.67123176  0.82876754  0.05802775  1 -0.259115
  C  C170  1  0.87310009  0.87310110  0.27807727  1 0.593717
  C  C171  1  0.82877284  0.82877226  0.44198321  1 -0.258573
  C  C172  1  0.62689894  0.27806022  0.62689505  1 0.592492
  C  C173  1  0.67123739  0.44198227  0.67123521  1 -0.258169
  C  C174  1  0.62691404  0.22187691  0.87308611  1 0.591772
  C  C175  1  0.67121718  0.05804360  0.82878297  1 -0.257697
  C  C176  1  0.87310487  0.27806106  0.87310078  1 0.593478
  C  C177  1  0.82876458  0.44198174  0.82876255  1 -0.258519
  C  C178  1  0.87309052  0.22188716  0.62690972  1 0.593043
  C  C179  1  0.82879287  0.05804229  0.67120739  1 -0.258968
  N  N180  1  0.41189766  0.81902815  0.19361212  1 -0.363586
  N  N181  1  0.08810201  0.68097204  0.19361180  1 -0.362613
  N  N182  1  0.08803871  0.81900357  0.30626201  1 -0.363756
  N  N183  1  0.41196167  0.68099586  0.30626153  1 -0.364456
  N  N184  1  0.19373993  0.41192292  0.81901283  1 -0.365734
  N  N185  1  0.19375007  0.08801966  0.68099622  1 -0.365473
  N  N186  1  0.30636989  0.08812462  0.81902924  1 -0.365286
  N  N187  1  0.30636358  0.41191577  0.68097676  1 -0.365182
  N  N188  1  0.81903213  0.19372227  0.41193476  1 -0.36098
  N  N189  1  0.68099659  0.19365526  0.08813520  1 -0.357392
  N  N190  1  0.81899652  0.30633750  0.08809093  1 -0.357879
  N  N191  1  0.68097466  0.30626884  0.41198337  1 -0.36062
  N  N192  1  0.31900062  0.91197436  0.80624710  1 -0.365292
  N  N193  1  0.18099281  0.58807349  0.80625490  1 -0.365405
  N  N194  1  0.31902378  0.58808847  0.69363065  1 -0.365721
  N  N195  1  0.18097109  0.91186577  0.69362114  1 -0.365495
  N  N196  1  0.91191616  0.69366151  0.18099791  1 -0.361863
  N  N197  1  0.58812666  0.69365515  0.31900713  1 -0.362956
  N  N198  1  0.58808324  0.80633753  0.18099812  1 -0.363375
  N  N199  1  0.91187379  0.80634392  0.31900670  1 -0.362389
  N  N200  1  0.69365414  0.31902424  0.58811635  1 -0.360065
  N  N201  1  0.69372904  0.18099388  0.91196415  1 -0.358002
  N  N202  1  0.80637715  0.31902828  0.91190329  1 -0.360052
  N  N203  1  0.80624030  0.18099273  0.58805633  1 -0.361403
  N  N204  1  0.58803638  0.18099370  0.80627049  1 -0.357746
  N  N205  1  0.91188276  0.31902470  0.80634613  1 -0.363395
  N  N206  1  0.91194356  0.18099263  0.69375960  1 -0.363594
  N  N207  1  0.58809686  0.31902827  0.69362354  1 -0.3586
  N  N208  1  0.80633618  0.58808695  0.18099806  1 -0.361589
  N  N209  1  0.80634312  0.91187398  0.31900662  1 -0.360783
  N  N210  1  0.69366344  0.91191339  0.18099762  1 -0.361175
  N  N211  1  0.69365736  0.58812634  0.31900700  1 -0.361942
  N  N212  1  0.18100237  0.80633395  0.58812565  1 -0.365583
  N  N213  1  0.31903426  0.80629474  0.91196816  1 -0.36375
  N  N214  1  0.18096819  0.69370789  0.91197498  1 -0.364059
  N  N215  1  0.31899914  0.69366332  0.58813293  1 -0.365776
  N  N216  1  0.68097289  0.08809187  0.19362326  1 -0.358794
  N  N217  1  0.81902710  0.41190033  0.19362096  1 -0.360022
  N  N218  1  0.68098986  0.41195640  0.30626672  1 -0.361367
  N  N219  1  0.81900860  0.08803612  0.30626441  1 -0.360322
  N  N220  1  0.08801272  0.30626779  0.81902653  1 -0.365216
  N  N221  1  0.41190636  0.30633982  0.68100118  1 -0.361051
  N  N222  1  0.41186936  0.19365507  0.81900487  1 -0.360816
  N  N223  1  0.08806918  0.19371943  0.68096422  1 -0.364675
  N  N224  1  0.30629165  0.68096992  0.41197207  1 -0.365997
  N  N225  1  0.30633409  0.81899742  0.08813063  1 -0.362408
  N  N226  1  0.19366604  0.68100255  0.08813095  1 -0.362069
  N  N227  1  0.19370829  0.81902966  0.41197135  1 -0.366065
  O  O228  1  0.39722062  0.70718323  0.10277616  1 -0.578592
  O  O229  1  0.10277952  0.79281705  0.10277604  1 -0.578598
  O  O230  1  0.10278224  0.70720384  0.39721402  1 -0.580196
  O  O231  1  0.39721858  0.79279433  0.39721397  1 -0.580094
  O  O232  1  0.10278622  0.39721377  0.70720404  1 -0.580063
  O  O233  1  0.10278687  0.10278479  0.79279585  1 -0.579874
  O  O234  1  0.39721977  0.10278393  0.70718580  1 -0.579217
  O  O235  1  0.39722573  0.39722416  0.79281487  1 -0.578906
  O  O236  1  0.70720462  0.10278566  0.39721222  1 -0.578942
  O  O237  1  0.79281325  0.10277996  0.10277774  1 -0.57781
  O  O238  1  0.70718601  0.39722401  0.10277506  1 -0.577784
  O  O239  1  0.79279555  0.39721816  0.39721501  1 -0.578957
  O  O240  1  0.20720575  0.89721687  0.89721522  1 -0.579786
  O  O241  1  0.29279450  0.60278640  0.89721265  1 -0.579813
  O  O242  1  0.20718056  0.60277718  0.60277693  1 -0.579394
  O  O243  1  0.29282018  0.89721713  0.60277951  1 -0.579284
  O  O244  1  0.89722061  0.60277774  0.29281506  1 -0.578349
  O  O245  1  0.60278697  0.60278542  0.20718441  1 -0.578973
  O  O246  1  0.60277860  0.89722019  0.29281466  1 -0.578324
  O  O247  1  0.89721340  0.89721296  0.20718387  1 -0.579095
  O  O248  1  0.60277626  0.20718876  0.60277588  1 -0.578128
  O  O249  1  0.60278717  0.29279744  0.89721292  1 -0.578327
  O  O250  1  0.89722430  0.20718800  0.89722323  1 -0.578547
  O  O251  1  0.89720938  0.29280195  0.60279125  1 -0.579132
