# generated using pymatgen
data_CuH8C12(NO2)2
_symmetry_space_group_name_H-M   'P 1'
_cell_length_a   4.52267446
_cell_length_b   10.81676466
_cell_length_c   12.91827732
_cell_angle_alpha   90.65961174
_cell_angle_beta   100.09246779
_cell_angle_gamma   86.27492046
_symmetry_Int_Tables_number   1
_chemical_formula_structural   CuH8C12(NO2)2
_chemical_formula_sum   'Cu2 H16 C24 N4 O8'
_cell_volume   620.87773050
_cell_formula_units_Z   2
loop_
 _symmetry_equiv_pos_site_id
 _symmetry_equiv_pos_as_xyz
  1  'x, y, z'
loop_
 _atom_site_type_symbol
 _atom_site_label
 _atom_site_symmetry_multiplicity
 _atom_site_fract_x
 _atom_site_fract_y
 _atom_site_fract_z
 _atom_site_occupancy
 _atom_site_charge
  Cu  Cu0  1  0.06842556  0.78140908  0.23130328  1 0.770205
  Cu  Cu1  1  0.83723284  0.28141969  0.76871168  1 0.770887
  H  H2  1  0.95121263  0.51675141  0.65963076  1 0.106774
  H  H3  1  0.70546134  0.62536093  0.49086555  1 0.117866
  H  H4  1  0.99531316  0.37702170  0.46672291  1 0.124703
  H  H5  1  0.28127094  0.26851817  0.62672795  1 0.08959
  H  H6  1  0.36916659  0.10377947  0.79062758  1 0.093653
  H  H7  1  0.66597882  0.96579053  0.92893316  1 0.128249
  H  H8  1  0.02227970  0.06680316  0.12682426  1 0.125574
  H  H9  1  0.76983273  0.21980469  0.98615423  1 0.097631
  H  H10  1  0.29139481  0.01681916  0.34041660  1 0.107271
  H  H11  1  0.21426009  0.12546576  0.50914725  1 0.11832
  H  H12  1  0.52851155  0.87696310  0.53320049  1 0.124537
  H  H13  1  0.65467211  0.76843961  0.37324543  1 0.089999
  H  H14  1  0.57847145  0.60388472  0.20943794  1 0.094214
  H  H15  1  0.73732322  0.46597765  0.07116523  1 0.128128
  H  H16  1  0.89586064  0.56693943  0.87303084  1 0.125393
  H  H17  1  0.78366912  0.71984276  0.01373820  1 0.097964
  C  C18  1  0.75140131  0.48490778  0.61025758  1 0.075294
  C  C19  1  0.59853692  0.55081955  0.52228641  1 -0.126831
  C  C20  1  0.32116578  0.51670704  0.47140921  1 -0.000918
  C  C21  1  0.19746126  0.41442311  0.51018391  1 -0.129835
  C  C22  1  0.36597012  0.35036943  0.59647199  1 0.091192
  C  C23  1  0.15754426  0.58345687  0.37528103  1 0.546292
  C  C24  1  0.30375999  0.09838571  0.86764489  1 0.099405
  C  C25  1  0.48109060  0.02587575  0.94761232  1 -0.126985
  C  C26  1  0.37835297  0.01548237  0.04370053  1 -0.010292
  C  C27  1  0.11222697  0.07983256  0.05541617  1 -0.128855
  C  C28  1  0.95205880  0.15413091  0.97422706  1 0.074209
  C  C29  1  0.53045521  0.93205751  0.13181013  1 0.565474
  C  C30  1  0.14107327  0.98492344  0.38976252  1 0.075739
  C  C31  1  0.07605589  0.05084370  0.47773998  1 -0.128377
  C  C32  1  0.84966046  0.01668727  0.52860528  1 -0.000766
  C  C33  1  0.68718769  0.91440700  0.48977513  1 -0.129444
  C  C34  1  0.76954426  0.85032635  0.40349109  1 0.090709
  C  C35  1  0.78215962  0.08347500  0.62471277  1 0.546422
  C  C36  1  0.43612596  0.59851052  0.13240355  1 0.098948
  C  C37  1  0.53369187  0.52602864  0.05242780  1 -0.126234
  C  C38  1  0.33490246  0.51558820  0.95630937  1 -0.01002
  C  C39  1  0.05703106  0.57991541  0.94452673  1 -0.128954
  C  C40  1  0.97782816  0.65418361  0.02572176  1 0.073535
  C  C41  1  0.39905718  0.43214075  0.86825129  1 0.56285
  N  N42  1  0.62928424  0.38659197  0.64672148  1 -0.204761
  N  N43  1  0.05123219  0.16329908  0.88126993  1 -0.226964
  N  N44  1  0.98255839  0.88656741  0.35333682  1 -0.204203
  N  N45  1  0.16987266  0.66330713  0.11869846  1 -0.2261
  O  O46  1  0.29912904  0.67300244  0.34450964  1 -0.521125
  O  O47  1  0.90497494  0.55072285  0.33253518  1 -0.523389
  O  O48  1  0.77349294  0.87108778  0.11725905  1 -0.539014
  O  O49  1  0.40448399  0.92577976  0.21081355  1 -0.568308
  O  O50  1  0.95449636  0.17304134  0.65552507  1 -0.521021
  O  O51  1  0.57230275  0.05074104  0.66742833  1 -0.523342
  O  O52  1  0.65670003  0.37123747  0.88276462  1 -0.538041
  O  O53  1  0.19393310  0.42573227  0.78922608  1 -0.567249
