# generated using pymatgen
data_AgH12(C3N)6
_symmetry_space_group_name_H-M   'P 1'
_cell_length_a   22.66997141
_cell_length_b   15.20904952
_cell_length_c   25.58886821
_cell_angle_alpha   90.00000000
_cell_angle_beta   114.93859903
_cell_angle_gamma   90.00000000
_symmetry_Int_Tables_number   1
_chemical_formula_structural   AgH12(C3N)6
_chemical_formula_sum   'Ag16 H192 C288 N96'
_cell_volume   8000.12101829
_cell_formula_units_Z   16
loop_
 _symmetry_equiv_pos_site_id
 _symmetry_equiv_pos_as_xyz
  1  'x, y, z'
loop_
 _atom_site_type_symbol
 _atom_site_label
 _atom_site_symmetry_multiplicity
 _atom_site_fract_x
 _atom_site_fract_y
 _atom_site_fract_z
 _atom_site_occupancy
  Ag  Ag0  1  0.34286971  0.94884363  0.36659576  1
  Ag  Ag1  1  0.32820522  0.24983618  0.86804299  1
  Ag  Ag2  1  0.84286971  0.44884363  0.36659576  1
  Ag  Ag3  1  0.82820522  0.74983618  0.86804299  1
  Ag  Ag4  1  0.65713029  0.94884363  0.13340424  1
  Ag  Ag5  1  0.67179478  0.24983618  0.63195701  1
  Ag  Ag6  1  0.15713029  0.44884363  0.13340424  1
  Ag  Ag7  1  0.17179478  0.74983618  0.63195701  1
  Ag  Ag8  1  0.65713029  0.05115637  0.63340424  1
  Ag  Ag9  1  0.67179478  0.75016382  0.13195701  1
  Ag  Ag10  1  0.15713029  0.55115637  0.63340424  1
  Ag  Ag11  1  0.17179478  0.25016382  0.13195701  1
  Ag  Ag12  1  0.34286971  0.05115637  0.86659576  1
  Ag  Ag13  1  0.32820522  0.75016382  0.36804299  1
  Ag  Ag14  1  0.84286971  0.55115637  0.86659576  1
  Ag  Ag15  1  0.82820522  0.25016382  0.36804299  1
  H  H16  1  0.06004664  0.28645235  0.38909988  1
  H  H17  1  0.41850757  0.31137724  0.99236876  1
  H  H18  1  0.79929566  0.63603916  0.04994758  1
  H  H19  1  0.21644336  0.05785354  0.34184388  1
  H  H20  1  0.52443018  0.38661209  0.04768895  1
  H  H21  1  0.68962017  0.67606494  0.84024698  1
  H  H22  1  0.32573434  0.09505832  0.55175476  1
  H  H23  1  0.04480047  0.33536292  0.54865276  1
  H  H24  1  0.94082236  0.41459489  0.49256858  1
  H  H25  1  0.63403404  0.43459793  0.16087723  1
  H  H26  1  0.95723951  0.37176512  0.33894255  1
  H  H27  1  0.86093100  0.52813138  0.26600677  1
  H  H28  1  0.37684325  0.01448631  0.49657455  1
  H  H29  1  0.15978519  0.14223137  0.39120076  1
  H  H30  1  0.85235456  0.71209902  0.99459535  1
  H  H31  1  0.63119501  0.59593912  0.88984615  1
  H  H32  1  0.52727882  0.45765709  0.88615126  1
  H  H33  1  0.42170006  0.37621079  0.83628804  1
  H  H34  1  0.69422769  0.41829887  0.26760670  1
  H  H35  1  0.16261980  0.31311155  0.65826504  1
  H  H36  1  0.22072476  0.32933441  0.76541595  1
  H  H37  1  0.32491765  0.16064026  0.66392187  1
  H  H38  1  0.80659214  0.54993349  0.15949661  1
  H  H39  1  0.37640162  0.18055178  0.77111916  1
  H  H40  1  0.56004664  0.78645235  0.38909988  1
  H  H41  1  0.91850757  0.81137724  0.99236876  1
  H  H42  1  0.29929566  0.13603916  0.04994758  1
  H  H43  1  0.71644336  0.55785354  0.34184388  1
  H  H44  1  0.02443018  0.88661209  0.04768895  1
  H  H45  1  0.18962017  0.17606494  0.84024698  1
  H  H46  1  0.82573434  0.59505832  0.55175476  1
  H  H47  1  0.54480047  0.83536292  0.54865276  1
  H  H48  1  0.44082236  0.91459489  0.49256858  1
  H  H49  1  0.13403404  0.93459793  0.16087723  1
  H  H50  1  0.45723951  0.87176512  0.33894255  1
  H  H51  1  0.36093100  0.02813138  0.26600677  1
  H  H52  1  0.87684325  0.51448631  0.49657455  1
  H  H53  1  0.65978519  0.64223137  0.39120076  1
  H  H54  1  0.35235456  0.21209902  0.99459535  1
  H  H55  1  0.13119501  0.09593912  0.88984615  1
  H  H56  1  0.02727882  0.95765709  0.88615126  1
  H  H57  1  0.92170006  0.87621079  0.83628804  1
  H  H58  1  0.19422769  0.91829887  0.26760670  1
  H  H59  1  0.66261980  0.81311155  0.65826504  1
  H  H60  1  0.72072476  0.82933441  0.76541595  1
  H  H61  1  0.82491765  0.66064026  0.66392187  1
  H  H62  1  0.30659214  0.04993349  0.15949661  1
  H  H63  1  0.87640162  0.68055178  0.77111916  1
  H  H64  1  0.93995336  0.28645235  0.11090012  1
  H  H65  1  0.58149243  0.31137724  0.50763124  1
  H  H66  1  0.20070434  0.63603916  0.45005242  1
  H  H67  1  0.78355664  0.05785354  0.15815612  1
  H  H68  1  0.47556982  0.38661209  0.45231105  1
  H  H69  1  0.31037983  0.67606494  0.65975302  1
  H  H70  1  0.67426566  0.09505832  0.94824524  1
  H  H71  1  0.95519953  0.33536292  0.95134724  1
  H  H72  1  0.05917764  0.41459489  0.00743142  1
  H  H73  1  0.36596596  0.43459793  0.33912277  1
  H  H74  1  0.04276049  0.37176512  0.16105745  1
  H  H75  1  0.13906900  0.52813138  0.23399323  1
  H  H76  1  0.62315675  0.01448631  0.00342545  1
  H  H77  1  0.84021481  0.14223137  0.10879924  1
  H  H78  1  0.14764544  0.71209902  0.50540465  1
  H  H79  1  0.36880499  0.59593912  0.61015385  1
  H  H80  1  0.47272118  0.45765709  0.61384874  1
  H  H81  1  0.57829994  0.37621079  0.66371196  1
  H  H82  1  0.30577231  0.41829887  0.23239330  1
  H  H83  1  0.83738020  0.31311155  0.84173496  1
  H  H84  1  0.77927524  0.32933441  0.73458405  1
  H  H85  1  0.67508235  0.16064026  0.83607813  1
  H  H86  1  0.19340786  0.54993349  0.34050339  1
  H  H87  1  0.62359838  0.18055178  0.72888084  1
  H  H88  1  0.43995336  0.78645235  0.11090012  1
  H  H89  1  0.08149243  0.81137724  0.50763124  1
  H  H90  1  0.70070434  0.13603916  0.45005242  1
  H  H91  1  0.28355664  0.55785354  0.15815612  1
  H  H92  1  0.97556982  0.88661209  0.45231105  1
  H  H93  1  0.81037983  0.17606494  0.65975302  1
  H  H94  1  0.17426566  0.59505832  0.94824524  1
  H  H95  1  0.45519953  0.83536292  0.95134724  1
  H  H96  1  0.55917764  0.91459489  0.00743142  1
  H  H97  1  0.86596596  0.93459793  0.33912277  1
  H  H98  1  0.54276049  0.87176512  0.16105745  1
  H  H99  1  0.63906900  0.02813138  0.23399323  1
  H  H100  1  0.12315675  0.51448631  0.00342545  1
  H  H101  1  0.34021481  0.64223137  0.10879924  1
  H  H102  1  0.64764544  0.21209902  0.50540465  1
  H  H103  1  0.86880499  0.09593912  0.61015385  1
  H  H104  1  0.97272118  0.95765709  0.61384874  1
  H  H105  1  0.07829994  0.87621079  0.66371196  1
  H  H106  1  0.80577231  0.91829887  0.23239330  1
  H  H107  1  0.33738020  0.81311155  0.84173496  1
  H  H108  1  0.27927524  0.82933441  0.73458405  1
  H  H109  1  0.17508235  0.66064026  0.83607813  1
  H  H110  1  0.69340786  0.04993349  0.34050339  1
  H  H111  1  0.12359838  0.68055178  0.72888084  1
  H  H112  1  0.93995336  0.71354765  0.61090012  1
  H  H113  1  0.58149243  0.68862276  0.00763124  1
  H  H114  1  0.20070434  0.36396084  0.95005242  1
  H  H115  1  0.78355664  0.94214646  0.65815612  1
  H  H116  1  0.47556982  0.61338791  0.95231105  1
  H  H117  1  0.31037983  0.32393506  0.15975302  1
  H  H118  1  0.67426566  0.90494168  0.44824524  1
  H  H119  1  0.95519953  0.66463708  0.45134724  1
  H  H120  1  0.05917764  0.58540511  0.50743142  1
  H  H121  1  0.36596596  0.56540207  0.83912277  1
  H  H122  1  0.04276049  0.62823488  0.66105745  1
  H  H123  1  0.13906900  0.47186862  0.73399323  1
  H  H124  1  0.62315675  0.98551369  0.50342545  1
  H  H125  1  0.84021481  0.85776863  0.60879924  1
  H  H126  1  0.14764544  0.28790098  0.00540465  1
  H  H127  1  0.36880499  0.40406088  0.11015385  1
  H  H128  1  0.47272118  0.54234291  0.11384874  1
  H  H129  1  0.57829994  0.62378921  0.16371196  1
  H  H130  1  0.30577231  0.58170113  0.73239330  1
  H  H131  1  0.83738020  0.68688845  0.34173496  1
  H  H132  1  0.77927524  0.67066559  0.23458405  1
  H  H133  1  0.67508235  0.83935974  0.33607813  1
  H  H134  1  0.19340786  0.45006651  0.84050339  1
  H  H135  1  0.62359838  0.81944822  0.22888084  1
  H  H136  1  0.43995336  0.21354765  0.61090012  1
  H  H137  1  0.08149243  0.18862276  0.00763124  1
  H  H138  1  0.70070434  0.86396084  0.95005242  1
  H  H139  1  0.28355664  0.44214646  0.65815612  1
  H  H140  1  0.97556982  0.11338791  0.95231105  1
  H  H141  1  0.81037983  0.82393506  0.15975302  1
  H  H142  1  0.17426566  0.40494168  0.44824524  1
  H  H143  1  0.45519953  0.16463708  0.45134724  1
  H  H144  1  0.55917764  0.08540511  0.50743142  1
  H  H145  1  0.86596596  0.06540207  0.83912277  1
  H  H146  1  0.54276049  0.12823488  0.66105745  1
  H  H147  1  0.63906900  0.97186862  0.73399323  1
  H  H148  1  0.12315675  0.48551369  0.50342545  1
  H  H149  1  0.34021481  0.35776863  0.60879924  1
  H  H150  1  0.64764544  0.78790098  0.00540465  1
  H  H151  1  0.86880499  0.90406088  0.11015385  1
  H  H152  1  0.97272118  0.04234291  0.11384874  1
  H  H153  1  0.07829994  0.12378921  0.16371196  1
  H  H154  1  0.80577231  0.08170113  0.73239330  1
  H  H155  1  0.33738020  0.18688845  0.34173496  1
  H  H156  1  0.27927524  0.17066559  0.23458405  1
  H  H157  1  0.17508235  0.33935974  0.33607813  1
  H  H158  1  0.69340786  0.95006651  0.84050339  1
  H  H159  1  0.12359838  0.31944822  0.22888084  1
  H  H160  1  0.06004664  0.71354765  0.88909988  1
  H  H161  1  0.41850757  0.68862276  0.49236876  1
  H  H162  1  0.79929566  0.36396084  0.54994758  1
  H  H163  1  0.21644336  0.94214646  0.84184388  1
  H  H164  1  0.52443018  0.61338791  0.54768895  1
  H  H165  1  0.68962017  0.32393506  0.34024698  1
  H  H166  1  0.32573434  0.90494168  0.05175476  1
  H  H167  1  0.04480047  0.66463708  0.04865276  1
  H  H168  1  0.94082236  0.58540511  0.99256858  1
  H  H169  1  0.63403404  0.56540207  0.66087723  1
  H  H170  1  0.95723951  0.62823488  0.83894255  1
  H  H171  1  0.86093100  0.47186862  0.76600677  1
  H  H172  1  0.37684325  0.98551369  0.99657455  1
  H  H173  1  0.15978519  0.85776863  0.89120076  1
  H  H174  1  0.85235456  0.28790098  0.49459535  1
  H  H175  1  0.63119501  0.40406088  0.38984615  1
  H  H176  1  0.52727882  0.54234291  0.38615126  1
  H  H177  1  0.42170006  0.62378921  0.33628804  1
  H  H178  1  0.69422769  0.58170113  0.76760670  1
  H  H179  1  0.16261980  0.68688845  0.15826504  1
  H  H180  1  0.22072476  0.67066559  0.26541595  1
  H  H181  1  0.32491765  0.83935974  0.16392187  1
  H  H182  1  0.80659214  0.45006651  0.65949661  1
  H  H183  1  0.37640162  0.81944822  0.27111916  1
  H  H184  1  0.56004664  0.21354765  0.88909988  1
  H  H185  1  0.91850757  0.18862276  0.49236876  1
  H  H186  1  0.29929566  0.86396084  0.54994758  1
  H  H187  1  0.71644336  0.44214646  0.84184388  1
  H  H188  1  0.02443018  0.11338791  0.54768895  1
  H  H189  1  0.18962017  0.82393506  0.34024698  1
  H  H190  1  0.82573434  0.40494168  0.05175476  1
  H  H191  1  0.54480047  0.16463708  0.04865276  1
  H  H192  1  0.44082236  0.08540511  0.99256858  1
  H  H193  1  0.13403404  0.06540207  0.66087723  1
  H  H194  1  0.45723951  0.12823488  0.83894255  1
  H  H195  1  0.36093100  0.97186862  0.76600677  1
  H  H196  1  0.87684325  0.48551369  0.99657455  1
  H  H197  1  0.65978519  0.35776863  0.89120076  1
  H  H198  1  0.35235456  0.78790098  0.49459535  1
  H  H199  1  0.13119501  0.90406088  0.38984615  1
  H  H200  1  0.02727882  0.04234291  0.38615126  1
  H  H201  1  0.92170006  0.12378921  0.33628804  1
  H  H202  1  0.19422769  0.08170113  0.76760670  1
  H  H203  1  0.66261980  0.18688845  0.15826504  1
  H  H204  1  0.72072476  0.17066559  0.26541595  1
  H  H205  1  0.82491765  0.33935974  0.16392187  1
  H  H206  1  0.30659214  0.95006651  0.65949661  1
  H  H207  1  0.87640162  0.31944822  0.27111916  1
  C  C208  1  0.12129445  0.25475230  0.50489107  1
  C  C209  1  0.03466103  0.31442982  0.41305528  1
  C  C210  1  0.44442312  0.34287236  0.96996784  1
  C  C211  1  0.59655528  0.47343439  0.00303654  1
  C  C212  1  0.77416815  0.64300015  0.00339043  1
  C  C213  1  0.06065182  0.30271216  0.47325154  1
  C  C214  1  0.23900201  0.06666965  0.38849128  1
  C  C215  1  0.50282406  0.38551707  0.00087306  1
  C  C216  1  0.71251399  0.66551074  0.88672849  1
  C  C217  1  0.20599416  0.22209999  0.59020919  1
  C  C218  1  0.30006328  0.08712215  0.50533470  1
  C  C219  1  0.53450443  0.42787915  0.97117727  1
  C  C220  1  0.02604306  0.34137970  0.50206498  1
  C  C221  1  0.96861159  0.38581099  0.47094107  1
  C  C222  1  0.23887634  0.23382856  0.65276193  1
  C  C223  1  0.68045498  0.55742119  0.00456814  1
  C  C224  1  0.71114741  0.60799199  0.97417824  1
  C  C225  1  0.68218951  0.50444137  0.08853657  1
  C  C226  1  0.68399119  0.45732465  0.18327646  1
  C  C227  1  0.20703353  0.17486657  0.50624167  1
  C  C228  1  0.97747177  0.36120506  0.38538355  1
  C  C229  1  0.81034801  0.50872604  0.24137544  1
  C  C230  1  0.23802459  0.12460844  0.47582014  1
  C  C231  1  0.32811110  0.04196971  0.47453543  1
  C  C232  1  0.20749071  0.11344336  0.41564890  1
  C  C233  1  0.71503922  0.49515096  0.15115362  1
  C  C234  1  0.80335941  0.68541374  0.97269235  1
  C  C235  1  0.68002132  0.62157917  0.91409598  1
  C  C236  1  0.50430803  0.42504888  0.91061952  1
  C  C237  1  0.44613214  0.37998969  0.88319995  1
  C  C238  1  0.71768078  0.44797621  0.24244321  1
  C  C239  1  0.20974074  0.28239994  0.68233602  1
  C  C240  1  0.24185649  0.29122339  0.74151507  1
  C  C241  1  0.30089281  0.19832306  0.68549328  1
  C  C242  1  0.78025310  0.52123065  0.18235417  1
  C  C243  1  0.32928957  0.20984549  0.74466992  1
  C  C244  1  0.62129445  0.75475230  0.50489107  1
  C  C245  1  0.53466103  0.81442982  0.41305528  1
  C  C246  1  0.94442312  0.84287236  0.96996784  1
  C  C247  1  0.09655528  0.97343439  0.00303654  1
  C  C248  1  0.27416815  0.14300015  0.00339043  1
  C  C249  1  0.56065182  0.80271216  0.47325154  1
  C  C250  1  0.73900201  0.56666965  0.38849128  1
  C  C251  1  0.00282406  0.88551707  0.00087306  1
  C  C252  1  0.21251399  0.16551074  0.88672849  1
  C  C253  1  0.70599416  0.72209999  0.59020919  1
  C  C254  1  0.80006328  0.58712215  0.50533470  1
  C  C255  1  0.03450443  0.92787915  0.97117727  1
  C  C256  1  0.52604306  0.84137970  0.50206498  1
  C  C257  1  0.46861159  0.88581099  0.47094107  1
  C  C258  1  0.73887634  0.73382856  0.65276193  1
  C  C259  1  0.18045498  0.05742119  0.00456814  1
  C  C260  1  0.21114741  0.10799199  0.97417824  1
  C  C261  1  0.18218951  0.00444137  0.08853657  1
  C  C262  1  0.18399119  0.95732465  0.18327646  1
  C  C263  1  0.70703353  0.67486657  0.50624167  1
  C  C264  1  0.47747177  0.86120506  0.38538355  1
  C  C265  1  0.31034801  0.00872604  0.24137544  1
  C  C266  1  0.73802459  0.62460844  0.47582014  1
  C  C267  1  0.82811110  0.54196971  0.47453543  1
  C  C268  1  0.70749071  0.61344336  0.41564890  1
  C  C269  1  0.21503922  0.99515096  0.15115362  1
  C  C270  1  0.30335941  0.18541374  0.97269235  1
  C  C271  1  0.18002132  0.12157917  0.91409598  1
  C  C272  1  0.00430803  0.92504888  0.91061952  1
  C  C273  1  0.94613214  0.87998969  0.88319995  1
  C  C274  1  0.21768078  0.94797621  0.24244321  1
  C  C275  1  0.70974074  0.78239994  0.68233602  1
  C  C276  1  0.74185649  0.79122339  0.74151507  1
  C  C277  1  0.80089281  0.69832306  0.68549328  1
  C  C278  1  0.28025310  0.02123065  0.18235417  1
  C  C279  1  0.82928957  0.70984549  0.74466992  1
  C  C280  1  0.87870555  0.25475230  0.99510893  1
  C  C281  1  0.96533897  0.31442982  0.08694472  1
  C  C282  1  0.55557688  0.34287236  0.53003216  1
  C  C283  1  0.40344472  0.47343439  0.49696346  1
  C  C284  1  0.22583185  0.64300015  0.49660957  1
  C  C285  1  0.93934818  0.30271216  0.02674846  1
  C  C286  1  0.76099799  0.06666965  0.11150872  1
  C  C287  1  0.49717594  0.38551707  0.49912694  1
  C  C288  1  0.28748601  0.66551074  0.61327151  1
  C  C289  1  0.79400584  0.22209999  0.90979081  1
  C  C290  1  0.69993672  0.08712215  0.99466530  1
  C  C291  1  0.46549557  0.42787915  0.52882273  1
  C  C292  1  0.97395694  0.34137970  0.99793502  1
  C  C293  1  0.03138841  0.38581099  0.02905893  1
  C  C294  1  0.76112366  0.23382856  0.84723807  1
  C  C295  1  0.31954502  0.55742119  0.49543186  1
  C  C296  1  0.28885259  0.60799199  0.52582176  1
  C  C297  1  0.31781049  0.50444137  0.41146343  1
  C  C298  1  0.31600881  0.45732465  0.31672354  1
  C  C299  1  0.79296647  0.17486657  0.99375833  1
  C  C300  1  0.02252823  0.36120506  0.11461645  1
  C  C301  1  0.18965199  0.50872604  0.25862456  1
  C  C302  1  0.76197541  0.12460844  0.02417986  1
  C  C303  1  0.67188890  0.04196971  0.02546457  1
  C  C304  1  0.79250929  0.11344336  0.08435110  1
  C  C305  1  0.28496078  0.49515096  0.34884638  1
  C  C306  1  0.19664059  0.68541374  0.52730765  1
  C  C307  1  0.31997868  0.62157917  0.58590402  1
  C  C308  1  0.49569197  0.42504888  0.58938048  1
  C  C309  1  0.55386786  0.37998969  0.61680005  1
  C  C310  1  0.28231922  0.44797621  0.25755679  1
  C  C311  1  0.79025926  0.28239994  0.81766398  1
  C  C312  1  0.75814351  0.29122339  0.75848493  1
  C  C313  1  0.69910719  0.19832306  0.81450672  1
  C  C314  1  0.21974690  0.52123065  0.31764583  1
  C  C315  1  0.67071043  0.20984549  0.75533008  1
  C  C316  1  0.37870555  0.75475230  0.99510893  1
  C  C317  1  0.46533897  0.81442982  0.08694472  1
  C  C318  1  0.05557688  0.84287236  0.53003216  1
  C  C319  1  0.90344472  0.97343439  0.49696346  1
  C  C320  1  0.72583185  0.14300015  0.49660957  1
  C  C321  1  0.43934818  0.80271216  0.02674846  1
  C  C322  1  0.26099799  0.56666965  0.11150872  1
  C  C323  1  0.99717594  0.88551707  0.49912694  1
  C  C324  1  0.78748601  0.16551074  0.61327151  1
  C  C325  1  0.29400584  0.72209999  0.90979081  1
  C  C326  1  0.19993672  0.58712215  0.99466530  1
  C  C327  1  0.96549557  0.92787915  0.52882273  1
  C  C328  1  0.47395694  0.84137970  0.99793502  1
  C  C329  1  0.53138841  0.88581099  0.02905893  1
  C  C330  1  0.26112366  0.73382856  0.84723807  1
  C  C331  1  0.81954502  0.05742119  0.49543186  1
  C  C332  1  0.78885259  0.10799199  0.52582176  1
  C  C333  1  0.81781049  0.00444137  0.41146343  1
  C  C334  1  0.81600881  0.95732465  0.31672354  1
  C  C335  1  0.29296647  0.67486657  0.99375833  1
  C  C336  1  0.52252823  0.86120506  0.11461645  1
  C  C337  1  0.68965199  0.00872604  0.25862456  1
  C  C338  1  0.26197541  0.62460844  0.02417986  1
  C  C339  1  0.17188890  0.54196971  0.02546457  1
  C  C340  1  0.29250929  0.61344336  0.08435110  1
  C  C341  1  0.78496078  0.99515096  0.34884638  1
  C  C342  1  0.69664059  0.18541374  0.52730765  1
  C  C343  1  0.81997868  0.12157917  0.58590402  1
  C  C344  1  0.99569197  0.92504888  0.58938048  1
  C  C345  1  0.05386786  0.87998969  0.61680005  1
  C  C346  1  0.78231922  0.94797621  0.25755679  1
  C  C347  1  0.29025926  0.78239994  0.81766398  1
  C  C348  1  0.25814351  0.79122339  0.75848493  1
  C  C349  1  0.19910719  0.69832306  0.81450672  1
  C  C350  1  0.71974690  0.02123065  0.31764583  1
  C  C351  1  0.17071043  0.70984549  0.75533008  1
  C  C352  1  0.87870555  0.74524770  0.49510893  1
  C  C353  1  0.96533897  0.68557018  0.58694472  1
  C  C354  1  0.55557688  0.65712764  0.03003216  1
  C  C355  1  0.40344472  0.52656561  0.99696346  1
  C  C356  1  0.22583185  0.35699985  0.99660957  1
  C  C357  1  0.93934818  0.69728784  0.52674846  1
  C  C358  1  0.76099799  0.93333035  0.61150872  1
  C  C359  1  0.49717594  0.61448293  0.99912694  1
  C  C360  1  0.28748601  0.33448926  0.11327151  1
  C  C361  1  0.79400584  0.77790001  0.40979081  1
  C  C362  1  0.69993672  0.91287785  0.49466530  1
  C  C363  1  0.46549557  0.57212085  0.02882273  1
  C  C364  1  0.97395694  0.65862030  0.49793502  1
  C  C365  1  0.03138841  0.61418901  0.52905893  1
  C  C366  1  0.76112366  0.76617144  0.34723807  1
  C  C367  1  0.31954502  0.44257881  0.99543186  1
  C  C368  1  0.28885259  0.39200801  0.02582176  1
  C  C369  1  0.31781049  0.49555863  0.91146343  1
  C  C370  1  0.31600881  0.54267535  0.81672354  1
  C  C371  1  0.79296647  0.82513343  0.49375833  1
  C  C372  1  0.02252823  0.63879494  0.61461645  1
  C  C373  1  0.18965199  0.49127396  0.75862456  1
  C  C374  1  0.76197541  0.87539156  0.52417986  1
  C  C375  1  0.67188890  0.95803029  0.52546457  1
  C  C376  1  0.79250929  0.88655664  0.58435110  1
  C  C377  1  0.28496078  0.50484904  0.84884638  1
  C  C378  1  0.19664059  0.31458626  0.02730765  1
  C  C379  1  0.31997868  0.37842083  0.08590402  1
  C  C380  1  0.49569197  0.57495112  0.08938048  1
  C  C381  1  0.55386786  0.62001031  0.11680005  1
  C  C382  1  0.28231922  0.55202379  0.75755679  1
  C  C383  1  0.79025926  0.71760006  0.31766398  1
  C  C384  1  0.75814351  0.70877661  0.25848493  1
  C  C385  1  0.69910719  0.80167694  0.31450672  1
  C  C386  1  0.21974690  0.47876935  0.81764583  1
  C  C387  1  0.67071043  0.79015451  0.25533008  1
  C  C388  1  0.37870555  0.24524770  0.49510893  1
  C  C389  1  0.46533897  0.18557018  0.58694472  1
  C  C390  1  0.05557688  0.15712764  0.03003216  1
  C  C391  1  0.90344472  0.02656561  0.99696346  1
  C  C392  1  0.72583185  0.85699985  0.99660957  1
  C  C393  1  0.43934818  0.19728784  0.52674846  1
  C  C394  1  0.26099799  0.43333035  0.61150872  1
  C  C395  1  0.99717594  0.11448293  0.99912694  1
  C  C396  1  0.78748601  0.83448926  0.11327151  1
  C  C397  1  0.29400584  0.27790001  0.40979081  1
  C  C398  1  0.19993672  0.41287785  0.49466530  1
  C  C399  1  0.96549557  0.07212085  0.02882273  1
  C  C400  1  0.47395694  0.15862030  0.49793502  1
  C  C401  1  0.53138841  0.11418901  0.52905893  1
  C  C402  1  0.26112366  0.26617144  0.34723807  1
  C  C403  1  0.81954502  0.94257881  0.99543186  1
  C  C404  1  0.78885259  0.89200801  0.02582176  1
  C  C405  1  0.81781049  0.99555863  0.91146343  1
  C  C406  1  0.81600881  0.04267535  0.81672354  1
  C  C407  1  0.29296647  0.32513343  0.49375833  1
  C  C408  1  0.52252823  0.13879494  0.61461645  1
  C  C409  1  0.68965199  0.99127396  0.75862456  1
  C  C410  1  0.26197541  0.37539156  0.52417986  1
  C  C411  1  0.17188890  0.45803029  0.52546457  1
  C  C412  1  0.29250929  0.38655664  0.58435110  1
  C  C413  1  0.78496078  0.00484904  0.84884638  1
  C  C414  1  0.69664059  0.81458626  0.02730765  1
  C  C415  1  0.81997868  0.87842083  0.08590402  1
  C  C416  1  0.99569197  0.07495112  0.08938048  1
  C  C417  1  0.05386786  0.12001031  0.11680005  1
  C  C418  1  0.78231922  0.05202379  0.75755679  1
  C  C419  1  0.29025926  0.21760006  0.31766398  1
  C  C420  1  0.25814351  0.20877661  0.25848493  1
  C  C421  1  0.19910719  0.30167694  0.31450672  1
  C  C422  1  0.71974690  0.97876935  0.81764583  1
  C  C423  1  0.17071043  0.29015451  0.25533008  1
  C  C424  1  0.12129445  0.74524770  0.00489107  1
  C  C425  1  0.03466103  0.68557018  0.91305528  1
  C  C426  1  0.44442312  0.65712764  0.46996784  1
  C  C427  1  0.59655528  0.52656561  0.50303654  1
  C  C428  1  0.77416815  0.35699985  0.50339043  1
  C  C429  1  0.06065182  0.69728784  0.97325154  1
  C  C430  1  0.23900201  0.93333035  0.88849128  1
  C  C431  1  0.50282406  0.61448293  0.50087306  1
  C  C432  1  0.71251399  0.33448926  0.38672849  1
  C  C433  1  0.20599416  0.77790001  0.09020919  1
  C  C434  1  0.30006328  0.91287785  0.00533470  1
  C  C435  1  0.53450443  0.57212085  0.47117727  1
  C  C436  1  0.02604306  0.65862030  0.00206498  1
  C  C437  1  0.96861159  0.61418901  0.97094107  1
  C  C438  1  0.23887634  0.76617144  0.15276193  1
  C  C439  1  0.68045498  0.44257881  0.50456814  1
  C  C440  1  0.71114741  0.39200801  0.47417824  1
  C  C441  1  0.68218951  0.49555863  0.58853657  1
  C  C442  1  0.68399119  0.54267535  0.68327646  1
  C  C443  1  0.20703353  0.82513343  0.00624167  1
  C  C444  1  0.97747177  0.63879494  0.88538355  1
  C  C445  1  0.81034801  0.49127396  0.74137544  1
  C  C446  1  0.23802459  0.87539156  0.97582014  1
  C  C447  1  0.32811110  0.95803029  0.97453543  1
  C  C448  1  0.20749071  0.88655664  0.91564890  1
  C  C449  1  0.71503922  0.50484904  0.65115362  1
  C  C450  1  0.80335941  0.31458626  0.47269235  1
  C  C451  1  0.68002132  0.37842083  0.41409598  1
  C  C452  1  0.50430803  0.57495112  0.41061952  1
  C  C453  1  0.44613214  0.62001031  0.38319995  1
  C  C454  1  0.71768078  0.55202379  0.74244321  1
  C  C455  1  0.20974074  0.71760006  0.18233602  1
  C  C456  1  0.24185649  0.70877661  0.24151507  1
  C  C457  1  0.30089281  0.80167694  0.18549328  1
  C  C458  1  0.78025310  0.47876935  0.68235417  1
  C  C459  1  0.32928957  0.79015451  0.24466992  1
  C  C460  1  0.62129445  0.24524770  0.00489107  1
  C  C461  1  0.53466103  0.18557018  0.91305528  1
  C  C462  1  0.94442312  0.15712764  0.46996784  1
  C  C463  1  0.09655528  0.02656561  0.50303654  1
  C  C464  1  0.27416815  0.85699985  0.50339043  1
  C  C465  1  0.56065182  0.19728784  0.97325154  1
  C  C466  1  0.73900201  0.43333035  0.88849128  1
  C  C467  1  0.00282406  0.11448293  0.50087306  1
  C  C468  1  0.21251399  0.83448926  0.38672849  1
  C  C469  1  0.70599416  0.27790001  0.09020919  1
  C  C470  1  0.80006328  0.41287785  0.00533470  1
  C  C471  1  0.03450443  0.07212085  0.47117727  1
  C  C472  1  0.52604306  0.15862030  0.00206498  1
  C  C473  1  0.46861159  0.11418901  0.97094107  1
  C  C474  1  0.73887634  0.26617144  0.15276193  1
  C  C475  1  0.18045498  0.94257881  0.50456814  1
  C  C476  1  0.21114741  0.89200801  0.47417824  1
  C  C477  1  0.18218951  0.99555863  0.58853657  1
  C  C478  1  0.18399119  0.04267535  0.68327646  1
  C  C479  1  0.70703353  0.32513343  0.00624167  1
  C  C480  1  0.47747177  0.13879494  0.88538355  1
  C  C481  1  0.31034801  0.99127396  0.74137544  1
  C  C482  1  0.73802459  0.37539156  0.97582014  1
  C  C483  1  0.82811110  0.45803029  0.97453543  1
  C  C484  1  0.70749071  0.38655664  0.91564890  1
  C  C485  1  0.21503922  0.00484904  0.65115362  1
  C  C486  1  0.30335941  0.81458626  0.47269235  1
  C  C487  1  0.18002132  0.87842083  0.41409598  1
  C  C488  1  0.00430803  0.07495112  0.41061952  1
  C  C489  1  0.94613214  0.12001031  0.38319995  1
  C  C490  1  0.21768078  0.05202379  0.74244321  1
  C  C491  1  0.70974074  0.21760006  0.18233602  1
  C  C492  1  0.74185649  0.20877661  0.24151507  1
  C  C493  1  0.80089281  0.30167694  0.18549328  1
  C  C494  1  0.28025310  0.97876935  0.68235417  1
  C  C495  1  0.82928957  0.29015451  0.24466992  1
  N  N496  1  0.94295925  0.39611023  0.41279576  1
  N  N497  1  0.29890038  0.03117445  0.41674030  1
  N  N498  1  0.30071273  0.25490891  0.77332466  1
  N  N499  1  0.14603733  0.25711950  0.56309264  1
  N  N500  1  0.14937480  0.21383783  0.47438042  1
  N  N501  1  0.23844343  0.17922374  0.56441497  1
  N  N502  1  0.41578794  0.33881633  0.91192419  1
  N  N503  1  0.77414955  0.69636885  0.91468671  1
  N  N504  1  0.78047613  0.47296788  0.27243187  1
  N  N505  1  0.62380814  0.46462566  0.06086366  1
  N  N506  1  0.62216330  0.51947475  0.97252481  1
  N  N507  1  0.71278476  0.55109157  0.06241031  1
  N  N508  1  0.44295925  0.89611023  0.41279576  1
  N  N509  1  0.79890038  0.53117445  0.41674030  1
  N  N510  1  0.80071273  0.75490891  0.77332466  1
  N  N511  1  0.64603733  0.75711950  0.56309264  1
  N  N512  1  0.64937480  0.71383783  0.47438042  1
  N  N513  1  0.73844343  0.67922374  0.56441497  1
  N  N514  1  0.91578794  0.83881633  0.91192419  1
  N  N515  1  0.27414955  0.19636885  0.91468671  1
  N  N516  1  0.28047613  0.97296788  0.27243187  1
  N  N517  1  0.12380814  0.96462566  0.06086366  1
  N  N518  1  0.12216330  0.01947475  0.97252481  1
  N  N519  1  0.21278476  0.05109157  0.06241031  1
  N  N520  1  0.05704075  0.39611023  0.08720424  1
  N  N521  1  0.70109962  0.03117445  0.08325970  1
  N  N522  1  0.69928727  0.25490891  0.72667534  1
  N  N523  1  0.85396267  0.25711950  0.93690736  1
  N  N524  1  0.85062520  0.21383783  0.02561958  1
  N  N525  1  0.76155657  0.17922374  0.93558503  1
  N  N526  1  0.58421206  0.33881633  0.58807581  1
  N  N527  1  0.22585045  0.69636885  0.58531329  1
  N  N528  1  0.21952387  0.47296788  0.22756813  1
  N  N529  1  0.37619186  0.46462566  0.43913634  1
  N  N530  1  0.37783670  0.51947475  0.52747519  1
  N  N531  1  0.28721524  0.55109157  0.43758969  1
  N  N532  1  0.55704075  0.89611023  0.08720424  1
  N  N533  1  0.20109962  0.53117445  0.08325970  1
  N  N534  1  0.19928727  0.75490891  0.72667534  1
  N  N535  1  0.35396267  0.75711950  0.93690736  1
  N  N536  1  0.35062520  0.71383783  0.02561958  1
  N  N537  1  0.26155657  0.67922374  0.93558503  1
  N  N538  1  0.08421206  0.83881633  0.58807581  1
  N  N539  1  0.72585045  0.19636885  0.58531329  1
  N  N540  1  0.71952387  0.97296788  0.22756813  1
  N  N541  1  0.87619186  0.96462566  0.43913634  1
  N  N542  1  0.87783670  0.01947475  0.52747519  1
  N  N543  1  0.78721524  0.05109157  0.43758969  1
  N  N544  1  0.05704075  0.60388977  0.58720424  1
  N  N545  1  0.70109962  0.96882555  0.58325970  1
  N  N546  1  0.69928727  0.74509109  0.22667534  1
  N  N547  1  0.85396267  0.74288050  0.43690736  1
  N  N548  1  0.85062520  0.78616217  0.52561958  1
  N  N549  1  0.76155657  0.82077626  0.43558503  1
  N  N550  1  0.58421206  0.66118367  0.08807581  1
  N  N551  1  0.22585045  0.30363115  0.08531329  1
  N  N552  1  0.21952387  0.52703212  0.72756813  1
  N  N553  1  0.37619186  0.53537434  0.93913634  1
  N  N554  1  0.37783670  0.48052525  0.02747519  1
  N  N555  1  0.28721524  0.44890843  0.93758969  1
  N  N556  1  0.55704075  0.10388977  0.58720424  1
  N  N557  1  0.20109962  0.46882555  0.58325970  1
  N  N558  1  0.19928727  0.24509109  0.22667534  1
  N  N559  1  0.35396267  0.24288050  0.43690736  1
  N  N560  1  0.35062520  0.28616217  0.52561958  1
  N  N561  1  0.26155657  0.32077626  0.43558503  1
  N  N562  1  0.08421206  0.16118367  0.08807581  1
  N  N563  1  0.72585045  0.80363115  0.08531329  1
  N  N564  1  0.71952387  0.02703212  0.72756813  1
  N  N565  1  0.87619186  0.03537434  0.93913634  1
  N  N566  1  0.87783670  0.98052525  0.02747519  1
  N  N567  1  0.78721524  0.94890843  0.93758969  1
  N  N568  1  0.94295925  0.60388977  0.91279576  1
  N  N569  1  0.29890038  0.96882555  0.91674030  1
  N  N570  1  0.30071273  0.74509109  0.27332466  1
  N  N571  1  0.14603733  0.74288050  0.06309264  1
  N  N572  1  0.14937480  0.78616217  0.97438042  1
  N  N573  1  0.23844343  0.82077626  0.06441497  1
  N  N574  1  0.41578794  0.66118367  0.41192419  1
  N  N575  1  0.77414955  0.30363115  0.41468671  1
  N  N576  1  0.78047613  0.52703212  0.77243187  1
  N  N577  1  0.62380814  0.53537434  0.56086366  1
  N  N578  1  0.62216330  0.48052525  0.47252481  1
  N  N579  1  0.71278476  0.44890843  0.56241031  1
  N  N580  1  0.44295925  0.10388977  0.91279576  1
  N  N581  1  0.79890038  0.46882555  0.91674030  1
  N  N582  1  0.80071273  0.24509109  0.27332466  1
  N  N583  1  0.64603733  0.24288050  0.06309264  1
  N  N584  1  0.64937480  0.28616217  0.97438042  1
  N  N585  1  0.73844343  0.32077626  0.06441497  1
  N  N586  1  0.91578794  0.16118367  0.41192419  1
  N  N587  1  0.27414955  0.80363115  0.41468671  1
  N  N588  1  0.28047613  0.02703212  0.77243187  1
  N  N589  1  0.12380814  0.03537434  0.56086366  1
  N  N590  1  0.12216330  0.98052525  0.47252481  1
  N  N591  1  0.21278476  0.94890843  0.56241031  1
