# generated using pymatgen
data_AgH12(C3N)6
_symmetry_space_group_name_H-M   'P 1'
_cell_length_a   22.58826637
_cell_length_b   15.34701000
_cell_length_c   25.60616829
_cell_angle_alpha   90.00000000
_cell_angle_beta   115.02053321
_cell_angle_gamma   90.00000000
_symmetry_Int_Tables_number   1
_chemical_formula_structural   AgH12(C3N)6
_chemical_formula_sum   'Ag16 H192 C288 N96'
_cell_volume   8043.67238893
_cell_formula_units_Z   16
loop_
 _symmetry_equiv_pos_site_id
 _symmetry_equiv_pos_as_xyz
  1  'x, y, z'
loop_
 _atom_site_type_symbol
 _atom_site_label
 _atom_site_symmetry_multiplicity
 _atom_site_fract_x
 _atom_site_fract_y
 _atom_site_fract_z
 _atom_site_occupancy
  Ag  Ag0  1  0.34247136  0.55053756  0.36699510  1
  Ag  Ag1  1  0.32765105  0.25079054  0.86818412  1
  Ag  Ag2  1  0.84247136  0.05053756  0.36699510  1
  Ag  Ag3  1  0.82765105  0.75079054  0.86818412  1
  Ag  Ag4  1  0.65752864  0.55053756  0.13300490  1
  Ag  Ag5  1  0.67234895  0.25079054  0.63181588  1
  Ag  Ag6  1  0.15752864  0.05053756  0.13300490  1
  Ag  Ag7  1  0.17234895  0.75079054  0.63181588  1
  Ag  Ag8  1  0.65752864  0.44946244  0.63300490  1
  Ag  Ag9  1  0.67234895  0.74920946  0.13181588  1
  Ag  Ag10  1  0.15752864  0.94946244  0.63300490  1
  Ag  Ag11  1  0.17234895  0.24920946  0.13181588  1
  Ag  Ag12  1  0.34247136  0.44946244  0.86699510  1
  Ag  Ag13  1  0.32765105  0.74920946  0.36818412  1
  Ag  Ag14  1  0.84247136  0.94946244  0.86699510  1
  Ag  Ag15  1  0.82765105  0.24920946  0.36818412  1
  H  H16  1  0.21546577  0.44253614  0.34195774  1
  H  H17  1  0.05993208  0.21341283  0.38905444  1
  H  H18  1  0.69068674  0.82714239  0.84112252  1
  H  H19  1  0.79973694  0.86438284  0.05120812  1
  H  H20  1  0.41831483  0.18903615  0.99169403  1
  H  H21  1  0.04526349  0.16526621  0.54868168  1
  H  H22  1  0.32555888  0.40523603  0.55193383  1
  H  H23  1  0.52472632  0.11403307  0.04719983  1
  H  H24  1  0.94045529  0.08714527  0.49267096  1
  H  H25  1  0.63300957  0.06567120  0.16017699  1
  H  H26  1  0.37662070  0.48582818  0.49677005  1
  H  H27  1  0.86080882  0.97249815  0.26674911  1
  H  H28  1  0.15897588  0.35805601  0.39140206  1
  H  H29  1  0.95642741  0.12920261  0.33891121  1
  H  H30  1  0.85303964  0.78864031  0.99608877  1
  H  H31  1  0.69292330  0.08175143  0.26721207  1
  H  H32  1  0.32512426  0.33989909  0.66421936  1
  H  H33  1  0.52692573  0.04181734  0.88594498  1
  H  H34  1  0.42103340  0.12327227  0.83576001  1
  H  H35  1  0.22136237  0.16915381  0.76471772  1
  H  H36  1  0.16387258  0.18448950  0.65729195  1
  H  H37  1  0.37614138  0.32103688  0.77161851  1
  H  H38  1  0.63199431  0.90676922  0.89061522  1
  H  H39  1  0.80661501  0.95100572  0.16001041  1
  H  H40  1  0.71546577  0.94253614  0.34195774  1
  H  H41  1  0.55993208  0.71341283  0.38905444  1
  H  H42  1  0.19068674  0.32714239  0.84112252  1
  H  H43  1  0.29973694  0.36438284  0.05120812  1
  H  H44  1  0.91831483  0.68903615  0.99169403  1
  H  H45  1  0.54526349  0.66526621  0.54868168  1
  H  H46  1  0.82555888  0.90523603  0.55193383  1
  H  H47  1  0.02472632  0.61403307  0.04719983  1
  H  H48  1  0.44045529  0.58714527  0.49267096  1
  H  H49  1  0.13300957  0.56567120  0.16017699  1
  H  H50  1  0.87662070  0.98582818  0.49677005  1
  H  H51  1  0.36080882  0.47249815  0.26674911  1
  H  H52  1  0.65897588  0.85805601  0.39140206  1
  H  H53  1  0.45642741  0.62920261  0.33891121  1
  H  H54  1  0.35303964  0.28864031  0.99608877  1
  H  H55  1  0.19292330  0.58175143  0.26721207  1
  H  H56  1  0.82512426  0.83989909  0.66421936  1
  H  H57  1  0.02692573  0.54181734  0.88594498  1
  H  H58  1  0.92103340  0.62327227  0.83576001  1
  H  H59  1  0.72136237  0.66915381  0.76471772  1
  H  H60  1  0.66387258  0.68448950  0.65729195  1
  H  H61  1  0.87614138  0.82103688  0.77161851  1
  H  H62  1  0.13199431  0.40676922  0.89061522  1
  H  H63  1  0.30661501  0.45100572  0.16001041  1
  H  H64  1  0.78453423  0.44253614  0.15804226  1
  H  H65  1  0.94006792  0.21341283  0.11094556  1
  H  H66  1  0.30931326  0.82714239  0.65887748  1
  H  H67  1  0.20026306  0.86438284  0.44879188  1
  H  H68  1  0.58168517  0.18903615  0.50830597  1
  H  H69  1  0.95473651  0.16526621  0.95131832  1
  H  H70  1  0.67444112  0.40523603  0.94806617  1
  H  H71  1  0.47527368  0.11403307  0.45280017  1
  H  H72  1  0.05954471  0.08714527  0.00732904  1
  H  H73  1  0.36699043  0.06567120  0.33982301  1
  H  H74  1  0.62337930  0.48582818  0.00322995  1
  H  H75  1  0.13919118  0.97249815  0.23325089  1
  H  H76  1  0.84102412  0.35805601  0.10859794  1
  H  H77  1  0.04357259  0.12920261  0.16108879  1
  H  H78  1  0.14696036  0.78864031  0.50391123  1
  H  H79  1  0.30707670  0.08175143  0.23278793  1
  H  H80  1  0.67487574  0.33989909  0.83578064  1
  H  H81  1  0.47307427  0.04181734  0.61405502  1
  H  H82  1  0.57896660  0.12327227  0.66423999  1
  H  H83  1  0.77863763  0.16915381  0.73528228  1
  H  H84  1  0.83612742  0.18448950  0.84270805  1
  H  H85  1  0.62385862  0.32103688  0.72838149  1
  H  H86  1  0.36800569  0.90676922  0.60938478  1
  H  H87  1  0.19338499  0.95100572  0.33998959  1
  H  H88  1  0.28453423  0.94253614  0.15804226  1
  H  H89  1  0.44006792  0.71341283  0.11094556  1
  H  H90  1  0.80931326  0.32714239  0.65887748  1
  H  H91  1  0.70026306  0.36438284  0.44879188  1
  H  H92  1  0.08168517  0.68903615  0.50830597  1
  H  H93  1  0.45473651  0.66526621  0.95131832  1
  H  H94  1  0.17444112  0.90523603  0.94806617  1
  H  H95  1  0.97527368  0.61403307  0.45280017  1
  H  H96  1  0.55954471  0.58714527  0.00732904  1
  H  H97  1  0.86699043  0.56567120  0.33982301  1
  H  H98  1  0.12337930  0.98582818  0.00322995  1
  H  H99  1  0.63919118  0.47249815  0.23325089  1
  H  H100  1  0.34102412  0.85805601  0.10859794  1
  H  H101  1  0.54357259  0.62920261  0.16108879  1
  H  H102  1  0.64696036  0.28864031  0.50391123  1
  H  H103  1  0.80707670  0.58175143  0.23278793  1
  H  H104  1  0.17487574  0.83989909  0.83578064  1
  H  H105  1  0.97307427  0.54181734  0.61405502  1
  H  H106  1  0.07896660  0.62327227  0.66423999  1
  H  H107  1  0.27863763  0.66915381  0.73528228  1
  H  H108  1  0.33612742  0.68448950  0.84270805  1
  H  H109  1  0.12385862  0.82103688  0.72838149  1
  H  H110  1  0.86800569  0.40676922  0.60938478  1
  H  H111  1  0.69338499  0.45100572  0.33998959  1
  H  H112  1  0.78453423  0.55746386  0.65804226  1
  H  H113  1  0.94006792  0.78658717  0.61094556  1
  H  H114  1  0.30931326  0.17285761  0.15887748  1
  H  H115  1  0.20026306  0.13561716  0.94879188  1
  H  H116  1  0.58168517  0.81096385  0.00830597  1
  H  H117  1  0.95473651  0.83473379  0.45131832  1
  H  H118  1  0.67444112  0.59476397  0.44806617  1
  H  H119  1  0.47527368  0.88596693  0.95280017  1
  H  H120  1  0.05954471  0.91285473  0.50732904  1
  H  H121  1  0.36699043  0.93432880  0.83982301  1
  H  H122  1  0.62337930  0.51417182  0.50322995  1
  H  H123  1  0.13919118  0.02750185  0.73325089  1
  H  H124  1  0.84102412  0.64194399  0.60859794  1
  H  H125  1  0.04357259  0.87079739  0.66108879  1
  H  H126  1  0.14696036  0.21135969  0.00391123  1
  H  H127  1  0.30707670  0.91824857  0.73278793  1
  H  H128  1  0.67487574  0.66010091  0.33578064  1
  H  H129  1  0.47307427  0.95818266  0.11405502  1
  H  H130  1  0.57896660  0.87672773  0.16423999  1
  H  H131  1  0.77863763  0.83084619  0.23528228  1
  H  H132  1  0.83612742  0.81551050  0.34270805  1
  H  H133  1  0.62385862  0.67896312  0.22838149  1
  H  H134  1  0.36800569  0.09323078  0.10938478  1
  H  H135  1  0.19338499  0.04899428  0.83998959  1
  H  H136  1  0.28453423  0.05746386  0.65804226  1
  H  H137  1  0.44006792  0.28658717  0.61094556  1
  H  H138  1  0.80931326  0.67285761  0.15887748  1
  H  H139  1  0.70026306  0.63561716  0.94879188  1
  H  H140  1  0.08168517  0.31096385  0.00830597  1
  H  H141  1  0.45473651  0.33473379  0.45131832  1
  H  H142  1  0.17444112  0.09476397  0.44806617  1
  H  H143  1  0.97527368  0.38596693  0.95280017  1
  H  H144  1  0.55954471  0.41285473  0.50732904  1
  H  H145  1  0.86699043  0.43432880  0.83982301  1
  H  H146  1  0.12337930  0.01417182  0.50322995  1
  H  H147  1  0.63919118  0.52750185  0.73325089  1
  H  H148  1  0.34102412  0.14194399  0.60859794  1
  H  H149  1  0.54357259  0.37079739  0.66108879  1
  H  H150  1  0.64696036  0.71135969  0.00391123  1
  H  H151  1  0.80707670  0.41824857  0.73278793  1
  H  H152  1  0.17487574  0.16010091  0.33578064  1
  H  H153  1  0.97307427  0.45818266  0.11405502  1
  H  H154  1  0.07896660  0.37672773  0.16423999  1
  H  H155  1  0.27863763  0.33084619  0.23528228  1
  H  H156  1  0.33612742  0.31551050  0.34270805  1
  H  H157  1  0.12385862  0.17896312  0.22838149  1
  H  H158  1  0.86800569  0.59323078  0.10938478  1
  H  H159  1  0.69338499  0.54899428  0.83998959  1
  H  H160  1  0.21546577  0.55746386  0.84195774  1
  H  H161  1  0.05993208  0.78658717  0.88905444  1
  H  H162  1  0.69068674  0.17285761  0.34112252  1
  H  H163  1  0.79973694  0.13561716  0.55120812  1
  H  H164  1  0.41831483  0.81096385  0.49169403  1
  H  H165  1  0.04526349  0.83473379  0.04868168  1
  H  H166  1  0.32555888  0.59476397  0.05193383  1
  H  H167  1  0.52472632  0.88596693  0.54719983  1
  H  H168  1  0.94045529  0.91285473  0.99267096  1
  H  H169  1  0.63300957  0.93432880  0.66017699  1
  H  H170  1  0.37662070  0.51417182  0.99677005  1
  H  H171  1  0.86080882  0.02750185  0.76674911  1
  H  H172  1  0.15897588  0.64194399  0.89140206  1
  H  H173  1  0.95642741  0.87079739  0.83891121  1
  H  H174  1  0.85303964  0.21135969  0.49608877  1
  H  H175  1  0.69292330  0.91824857  0.76721207  1
  H  H176  1  0.32512426  0.66010091  0.16421936  1
  H  H177  1  0.52692573  0.95818266  0.38594498  1
  H  H178  1  0.42103340  0.87672773  0.33576001  1
  H  H179  1  0.22136237  0.83084619  0.26471772  1
  H  H180  1  0.16387258  0.81551050  0.15729195  1
  H  H181  1  0.37614138  0.67896312  0.27161851  1
  H  H182  1  0.63199431  0.09323078  0.39061522  1
  H  H183  1  0.80661501  0.04899428  0.66001041  1
  H  H184  1  0.71546577  0.05746386  0.84195774  1
  H  H185  1  0.55993208  0.28658717  0.88905444  1
  H  H186  1  0.19068674  0.67285761  0.34112252  1
  H  H187  1  0.29973694  0.63561716  0.55120812  1
  H  H188  1  0.91831483  0.31096385  0.49169403  1
  H  H189  1  0.54526349  0.33473379  0.04868168  1
  H  H190  1  0.82555888  0.09476397  0.05193383  1
  H  H191  1  0.02472632  0.38596693  0.54719983  1
  H  H192  1  0.44045529  0.41285473  0.99267096  1
  H  H193  1  0.13300957  0.43432880  0.66017699  1
  H  H194  1  0.87662070  0.01417182  0.99677005  1
  H  H195  1  0.36080882  0.52750185  0.76674911  1
  H  H196  1  0.65897588  0.14194399  0.89140206  1
  H  H197  1  0.45642741  0.37079739  0.83891121  1
  H  H198  1  0.35303964  0.71135969  0.49608877  1
  H  H199  1  0.19292330  0.41824857  0.76721207  1
  H  H200  1  0.82512426  0.16010091  0.16421936  1
  H  H201  1  0.02692573  0.45818266  0.38594498  1
  H  H202  1  0.92103340  0.37672773  0.33576001  1
  H  H203  1  0.72136237  0.33084619  0.26471772  1
  H  H204  1  0.66387258  0.31551050  0.15729195  1
  H  H205  1  0.87614138  0.17896312  0.27161851  1
  H  H206  1  0.13199431  0.59323078  0.39061522  1
  H  H207  1  0.30661501  0.54899428  0.66001041  1
  C  C208  1  0.12154347  0.24466781  0.50472158  1
  C  C209  1  0.23831191  0.43345991  0.38858465  1
  C  C210  1  0.03438854  0.18584112  0.41296050  1
  C  C211  1  0.71342845  0.83693351  0.88767710  1
  C  C212  1  0.06068047  0.19735328  0.47315590  1
  C  C213  1  0.59655583  0.02719848  0.00290702  1
  C  C214  1  0.77476435  0.85784348  0.00456322  1
  C  C215  1  0.44410378  0.15720505  0.96936112  1
  C  C216  1  0.02608296  0.15921694  0.50205683  1
  C  C217  1  0.29991438  0.41301916  0.50546553  1
  C  C218  1  0.50270593  0.11483662  0.00036506  1
  C  C219  1  0.23958116  0.26537770  0.65265856  1
  C  C220  1  0.20667822  0.27686632  0.59011132  1
  C  C221  1  0.53427765  0.07235253  0.97077869  1
  C  C222  1  0.20700175  0.32512708  0.50627199  1
  C  C223  1  0.96829078  0.11542234  0.47099768  1
  C  C224  1  0.68072957  0.94351888  0.00505376  1
  C  C225  1  0.68319610  0.04319835  0.18304140  1
  C  C226  1  0.71172724  0.89332184  0.97505895  1
  C  C227  1  0.68207245  0.99625989  0.08872554  1
  C  C228  1  0.32785660  0.45810542  0.47466787  1
  C  C229  1  0.81001813  0.99178607  0.24183947  1
  C  C230  1  0.23779822  0.37547372  0.47587759  1
  C  C231  1  0.20689629  0.38673423  0.41574666  1
  C  C232  1  0.97686217  0.13962713  0.38532680  1
  C  C233  1  0.71472295  0.00556481  0.15132787  1
  C  C234  1  0.80406593  0.81566549  0.97396394  1
  C  C235  1  0.71669115  0.05232761  0.24225086  1
  C  C236  1  0.30121968  0.30199836  0.68570270  1
  C  C237  1  0.50390475  0.07468932  0.91024324  1
  C  C238  1  0.44556136  0.11961466  0.88268996  1
  C  C239  1  0.24239347  0.20785294  0.74113382  1
  C  C240  1  0.21059356  0.21611465  0.68188209  1
  C  C241  1  0.32930246  0.29104601  0.74493934  1
  C  C242  1  0.68081712  0.88057256  0.91491112  1
  C  C243  1  0.78013765  0.97947654  0.18280605  1
  C  C244  1  0.62154347  0.74466781  0.50472158  1
  C  C245  1  0.73831191  0.93345991  0.38858465  1
  C  C246  1  0.53438854  0.68584112  0.41296050  1
  C  C247  1  0.21342845  0.33693351  0.88767710  1
  C  C248  1  0.56068047  0.69735328  0.47315590  1
  C  C249  1  0.09655583  0.52719848  0.00290702  1
  C  C250  1  0.27476435  0.35784348  0.00456322  1
  C  C251  1  0.94410378  0.65720505  0.96936112  1
  C  C252  1  0.52608296  0.65921694  0.50205683  1
  C  C253  1  0.79991438  0.91301916  0.50546553  1
  C  C254  1  0.00270593  0.61483662  0.00036506  1
  C  C255  1  0.73958116  0.76537770  0.65265856  1
  C  C256  1  0.70667822  0.77686632  0.59011132  1
  C  C257  1  0.03427765  0.57235253  0.97077869  1
  C  C258  1  0.70700175  0.82512708  0.50627199  1
  C  C259  1  0.46829078  0.61542234  0.47099768  1
  C  C260  1  0.18072957  0.44351888  0.00505376  1
  C  C261  1  0.18319610  0.54319835  0.18304140  1
  C  C262  1  0.21172724  0.39332184  0.97505895  1
  C  C263  1  0.18207245  0.49625989  0.08872554  1
  C  C264  1  0.82785660  0.95810542  0.47466787  1
  C  C265  1  0.31001813  0.49178607  0.24183947  1
  C  C266  1  0.73779822  0.87547372  0.47587759  1
  C  C267  1  0.70689629  0.88673423  0.41574666  1
  C  C268  1  0.47686217  0.63962713  0.38532680  1
  C  C269  1  0.21472295  0.50556481  0.15132787  1
  C  C270  1  0.30406593  0.31566549  0.97396394  1
  C  C271  1  0.21669115  0.55232761  0.24225086  1
  C  C272  1  0.80121968  0.80199836  0.68570270  1
  C  C273  1  0.00390475  0.57468932  0.91024324  1
  C  C274  1  0.94556136  0.61961466  0.88268996  1
  C  C275  1  0.74239347  0.70785294  0.74113382  1
  C  C276  1  0.71059356  0.71611465  0.68188209  1
  C  C277  1  0.82930246  0.79104601  0.74493934  1
  C  C278  1  0.18081712  0.38057256  0.91491112  1
  C  C279  1  0.28013765  0.47947654  0.18280605  1
  C  C280  1  0.87845653  0.24466781  0.99527842  1
  C  C281  1  0.76168809  0.43345991  0.11141535  1
  C  C282  1  0.96561146  0.18584112  0.08703950  1
  C  C283  1  0.28657155  0.83693351  0.61232290  1
  C  C284  1  0.93931953  0.19735328  0.02684410  1
  C  C285  1  0.40344417  0.02719848  0.49709298  1
  C  C286  1  0.22523565  0.85784348  0.49543678  1
  C  C287  1  0.55589622  0.15720505  0.53063888  1
  C  C288  1  0.97391704  0.15921694  0.99794317  1
  C  C289  1  0.70008562  0.41301916  0.99453447  1
  C  C290  1  0.49729407  0.11483662  0.49963494  1
  C  C291  1  0.76041884  0.26537770  0.84734144  1
  C  C292  1  0.79332178  0.27686632  0.90988868  1
  C  C293  1  0.46572235  0.07235253  0.52922131  1
  C  C294  1  0.79299825  0.32512708  0.99372801  1
  C  C295  1  0.03170922  0.11542234  0.02900232  1
  C  C296  1  0.31927043  0.94351888  0.49494624  1
  C  C297  1  0.31680390  0.04319835  0.31695860  1
  C  C298  1  0.28827276  0.89332184  0.52494105  1
  C  C299  1  0.31792755  0.99625989  0.41127446  1
  C  C300  1  0.67214340  0.45810542  0.02533213  1
  C  C301  1  0.18998187  0.99178607  0.25816053  1
  C  C302  1  0.76220178  0.37547372  0.02412241  1
  C  C303  1  0.79310371  0.38673423  0.08425334  1
  C  C304  1  0.02313783  0.13962713  0.11467320  1
  C  C305  1  0.28527705  0.00556481  0.34867213  1
  C  C306  1  0.19593407  0.81566549  0.52603606  1
  C  C307  1  0.28330885  0.05232761  0.25774914  1
  C  C308  1  0.69878032  0.30199836  0.81429730  1
  C  C309  1  0.49609525  0.07468932  0.58975676  1
  C  C310  1  0.55443864  0.11961466  0.61731004  1
  C  C311  1  0.75760653  0.20785294  0.75886618  1
  C  C312  1  0.78940644  0.21611465  0.81811791  1
  C  C313  1  0.67069754  0.29104601  0.75506066  1
  C  C314  1  0.31918288  0.88057256  0.58508888  1
  C  C315  1  0.21986235  0.97947654  0.31719395  1
  C  C316  1  0.37845653  0.74466781  0.99527842  1
  C  C317  1  0.26168809  0.93345991  0.11141535  1
  C  C318  1  0.46561146  0.68584112  0.08703950  1
  C  C319  1  0.78657155  0.33693351  0.61232290  1
  C  C320  1  0.43931953  0.69735328  0.02684410  1
  C  C321  1  0.90344417  0.52719848  0.49709298  1
  C  C322  1  0.72523565  0.35784348  0.49543678  1
  C  C323  1  0.05589622  0.65720505  0.53063888  1
  C  C324  1  0.47391704  0.65921694  0.99794317  1
  C  C325  1  0.20008562  0.91301916  0.99453447  1
  C  C326  1  0.99729407  0.61483662  0.49963494  1
  C  C327  1  0.26041884  0.76537770  0.84734144  1
  C  C328  1  0.29332178  0.77686632  0.90988868  1
  C  C329  1  0.96572235  0.57235253  0.52922131  1
  C  C330  1  0.29299825  0.82512708  0.99372801  1
  C  C331  1  0.53170922  0.61542234  0.02900232  1
  C  C332  1  0.81927043  0.44351888  0.49494624  1
  C  C333  1  0.81680390  0.54319835  0.31695860  1
  C  C334  1  0.78827276  0.39332184  0.52494105  1
  C  C335  1  0.81792755  0.49625989  0.41127446  1
  C  C336  1  0.17214340  0.95810542  0.02533213  1
  C  C337  1  0.68998187  0.49178607  0.25816053  1
  C  C338  1  0.26220178  0.87547372  0.02412241  1
  C  C339  1  0.29310371  0.88673423  0.08425334  1
  C  C340  1  0.52313783  0.63962713  0.11467320  1
  C  C341  1  0.78527705  0.50556481  0.34867213  1
  C  C342  1  0.69593407  0.31566549  0.52603606  1
  C  C343  1  0.78330885  0.55232761  0.25774914  1
  C  C344  1  0.19878032  0.80199836  0.81429730  1
  C  C345  1  0.99609525  0.57468932  0.58975676  1
  C  C346  1  0.05443864  0.61961466  0.61731004  1
  C  C347  1  0.25760653  0.70785294  0.75886618  1
  C  C348  1  0.28940644  0.71611465  0.81811791  1
  C  C349  1  0.17069754  0.79104601  0.75506066  1
  C  C350  1  0.81918288  0.38057256  0.58508888  1
  C  C351  1  0.71986235  0.47947654  0.31719395  1
  C  C352  1  0.87845653  0.75533219  0.49527842  1
  C  C353  1  0.76168809  0.56654009  0.61141535  1
  C  C354  1  0.96561146  0.81415888  0.58703950  1
  C  C355  1  0.28657155  0.16306649  0.11232290  1
  C  C356  1  0.93931953  0.80264672  0.52684410  1
  C  C357  1  0.40344417  0.97280152  0.99709298  1
  C  C358  1  0.22523565  0.14215652  0.99543678  1
  C  C359  1  0.55589622  0.84279495  0.03063888  1
  C  C360  1  0.97391704  0.84078306  0.49794317  1
  C  C361  1  0.70008562  0.58698084  0.49453447  1
  C  C362  1  0.49729407  0.88516338  0.99963494  1
  C  C363  1  0.76041884  0.73462230  0.34734144  1
  C  C364  1  0.79332178  0.72313368  0.40988868  1
  C  C365  1  0.46572235  0.92764747  0.02922131  1
  C  C366  1  0.79299825  0.67487292  0.49372801  1
  C  C367  1  0.03170922  0.88457766  0.52900232  1
  C  C368  1  0.31927043  0.05648112  0.99494624  1
  C  C369  1  0.31680390  0.95680165  0.81695860  1
  C  C370  1  0.28827276  0.10667816  0.02494105  1
  C  C371  1  0.31792755  0.00374011  0.91127446  1
  C  C372  1  0.67214340  0.54189458  0.52533213  1
  C  C373  1  0.18998187  0.00821393  0.75816053  1
  C  C374  1  0.76220178  0.62452628  0.52412241  1
  C  C375  1  0.79310371  0.61326577  0.58425334  1
  C  C376  1  0.02313783  0.86037287  0.61467320  1
  C  C377  1  0.28527705  0.99443519  0.84867213  1
  C  C378  1  0.19593407  0.18433451  0.02603606  1
  C  C379  1  0.28330885  0.94767239  0.75774914  1
  C  C380  1  0.69878032  0.69800164  0.31429730  1
  C  C381  1  0.49609525  0.92531068  0.08975676  1
  C  C382  1  0.55443864  0.88038534  0.11731004  1
  C  C383  1  0.75760653  0.79214706  0.25886618  1
  C  C384  1  0.78940644  0.78388535  0.31811791  1
  C  C385  1  0.67069754  0.70895399  0.25506066  1
  C  C386  1  0.31918288  0.11942744  0.08508888  1
  C  C387  1  0.21986235  0.02052346  0.81719395  1
  C  C388  1  0.37845653  0.25533219  0.49527842  1
  C  C389  1  0.26168809  0.06654009  0.61141535  1
  C  C390  1  0.46561146  0.31415888  0.58703950  1
  C  C391  1  0.78657155  0.66306649  0.11232290  1
  C  C392  1  0.43931953  0.30264672  0.52684410  1
  C  C393  1  0.90344417  0.47280152  0.99709298  1
  C  C394  1  0.72523565  0.64215652  0.99543678  1
  C  C395  1  0.05589622  0.34279495  0.03063888  1
  C  C396  1  0.47391704  0.34078306  0.49794317  1
  C  C397  1  0.20008562  0.08698084  0.49453447  1
  C  C398  1  0.99729407  0.38516338  0.99963494  1
  C  C399  1  0.26041884  0.23462230  0.34734144  1
  C  C400  1  0.29332178  0.22313368  0.40988868  1
  C  C401  1  0.96572235  0.42764747  0.02922131  1
  C  C402  1  0.29299825  0.17487292  0.49372801  1
  C  C403  1  0.53170922  0.38457766  0.52900232  1
  C  C404  1  0.81927043  0.55648112  0.99494624  1
  C  C405  1  0.81680390  0.45680165  0.81695860  1
  C  C406  1  0.78827276  0.60667816  0.02494105  1
  C  C407  1  0.81792755  0.50374011  0.91127446  1
  C  C408  1  0.17214340  0.04189458  0.52533213  1
  C  C409  1  0.68998187  0.50821393  0.75816053  1
  C  C410  1  0.26220178  0.12452628  0.52412241  1
  C  C411  1  0.29310371  0.11326577  0.58425334  1
  C  C412  1  0.52313783  0.36037287  0.61467320  1
  C  C413  1  0.78527705  0.49443519  0.84867213  1
  C  C414  1  0.69593407  0.68433451  0.02603606  1
  C  C415  1  0.78330885  0.44767239  0.75774914  1
  C  C416  1  0.19878032  0.19800164  0.31429730  1
  C  C417  1  0.99609525  0.42531068  0.08975676  1
  C  C418  1  0.05443864  0.38038534  0.11731004  1
  C  C419  1  0.25760653  0.29214706  0.25886618  1
  C  C420  1  0.28940644  0.28388535  0.31811791  1
  C  C421  1  0.17069754  0.20895399  0.25506066  1
  C  C422  1  0.81918288  0.61942744  0.08508888  1
  C  C423  1  0.71986235  0.52052346  0.81719395  1
  C  C424  1  0.12154347  0.75533219  0.00472158  1
  C  C425  1  0.23831191  0.56654009  0.88858465  1
  C  C426  1  0.03438854  0.81415888  0.91296050  1
  C  C427  1  0.71342845  0.16306649  0.38767710  1
  C  C428  1  0.06068047  0.80264672  0.97315590  1
  C  C429  1  0.59655583  0.97280152  0.50290702  1
  C  C430  1  0.77476435  0.14215652  0.50456322  1
  C  C431  1  0.44410378  0.84279495  0.46936112  1
  C  C432  1  0.02608296  0.84078306  0.00205683  1
  C  C433  1  0.29991438  0.58698084  0.00546553  1
  C  C434  1  0.50270593  0.88516338  0.50036506  1
  C  C435  1  0.23958116  0.73462230  0.15265856  1
  C  C436  1  0.20667822  0.72313368  0.09011132  1
  C  C437  1  0.53427765  0.92764747  0.47077869  1
  C  C438  1  0.20700175  0.67487292  0.00627199  1
  C  C439  1  0.96829078  0.88457766  0.97099768  1
  C  C440  1  0.68072957  0.05648112  0.50505376  1
  C  C441  1  0.68319610  0.95680165  0.68304140  1
  C  C442  1  0.71172724  0.10667816  0.47505895  1
  C  C443  1  0.68207245  0.00374011  0.58872554  1
  C  C444  1  0.32785660  0.54189458  0.97466787  1
  C  C445  1  0.81001813  0.00821393  0.74183947  1
  C  C446  1  0.23779822  0.62452628  0.97587759  1
  C  C447  1  0.20689629  0.61326577  0.91574666  1
  C  C448  1  0.97686217  0.86037287  0.88532680  1
  C  C449  1  0.71472295  0.99443519  0.65132787  1
  C  C450  1  0.80406593  0.18433451  0.47396394  1
  C  C451  1  0.71669115  0.94767239  0.74225086  1
  C  C452  1  0.30121968  0.69800164  0.18570270  1
  C  C453  1  0.50390475  0.92531068  0.41024324  1
  C  C454  1  0.44556136  0.88038534  0.38268996  1
  C  C455  1  0.24239347  0.79214706  0.24113382  1
  C  C456  1  0.21059356  0.78388535  0.18188209  1
  C  C457  1  0.32930246  0.70895399  0.24493934  1
  C  C458  1  0.68081712  0.11942744  0.41491112  1
  C  C459  1  0.78013765  0.02052346  0.68280605  1
  C  C460  1  0.62154347  0.25533219  0.00472158  1
  C  C461  1  0.73831191  0.06654009  0.88858465  1
  C  C462  1  0.53438854  0.31415888  0.91296050  1
  C  C463  1  0.21342845  0.66306649  0.38767710  1
  C  C464  1  0.56068047  0.30264672  0.97315590  1
  C  C465  1  0.09655583  0.47280152  0.50290702  1
  C  C466  1  0.27476435  0.64215652  0.50456322  1
  C  C467  1  0.94410378  0.34279495  0.46936112  1
  C  C468  1  0.52608296  0.34078306  0.00205683  1
  C  C469  1  0.79991438  0.08698084  0.00546553  1
  C  C470  1  0.00270593  0.38516338  0.50036506  1
  C  C471  1  0.73958116  0.23462230  0.15265856  1
  C  C472  1  0.70667822  0.22313368  0.09011132  1
  C  C473  1  0.03427765  0.42764747  0.47077869  1
  C  C474  1  0.70700175  0.17487292  0.00627199  1
  C  C475  1  0.46829078  0.38457766  0.97099768  1
  C  C476  1  0.18072957  0.55648112  0.50505376  1
  C  C477  1  0.18319610  0.45680165  0.68304140  1
  C  C478  1  0.21172724  0.60667816  0.47505895  1
  C  C479  1  0.18207245  0.50374011  0.58872554  1
  C  C480  1  0.82785660  0.04189458  0.97466787  1
  C  C481  1  0.31001813  0.50821393  0.74183947  1
  C  C482  1  0.73779822  0.12452628  0.97587759  1
  C  C483  1  0.70689629  0.11326577  0.91574666  1
  C  C484  1  0.47686217  0.36037287  0.88532680  1
  C  C485  1  0.21472295  0.49443519  0.65132787  1
  C  C486  1  0.30406593  0.68433451  0.47396394  1
  C  C487  1  0.21669115  0.44767239  0.74225086  1
  C  C488  1  0.80121968  0.19800164  0.18570270  1
  C  C489  1  0.00390475  0.42531068  0.41024324  1
  C  C490  1  0.94556136  0.38038534  0.38268996  1
  C  C491  1  0.74239347  0.29214706  0.24113382  1
  C  C492  1  0.71059356  0.28388535  0.18188209  1
  C  C493  1  0.82930246  0.20895399  0.24493934  1
  C  C494  1  0.18081712  0.61942744  0.41491112  1
  C  C495  1  0.28013765  0.52052346  0.68280605  1
  N  N496  1  0.94234270  0.10517825  0.41284111  1
  N  N497  1  0.29842868  0.46876929  0.41687072  1
  N  N498  1  0.30078819  0.24545413  0.77333822  1
  N  N499  1  0.14921119  0.28639135  0.47426285  1
  N  N500  1  0.23874357  0.32058794  0.56440018  1
  N  N501  1  0.14686901  0.24116056  0.56287633  1
  N  N502  1  0.41527500  0.16090576  0.91131801  1
  N  N503  1  0.77504811  0.80541511  0.91586067  1
  N  N504  1  0.77971751  0.02735985  0.27257126  1
  N  N505  1  0.62241022  0.98153286  0.97262875  1
  N  N506  1  0.71278561  0.94957809  0.06292149  1
  N  N507  1  0.62361508  0.03602469  0.06069451  1
  N  N508  1  0.44234270  0.60517825  0.41284111  1
  N  N509  1  0.79842868  0.96876929  0.41687072  1
  N  N510  1  0.80078819  0.74545413  0.77333822  1
  N  N511  1  0.64921119  0.78639135  0.47426285  1
  N  N512  1  0.73874357  0.82058794  0.56440018  1
  N  N513  1  0.64686901  0.74116056  0.56287633  1
  N  N514  1  0.91527500  0.66090576  0.91131801  1
  N  N515  1  0.27504811  0.30541511  0.91586067  1
  N  N516  1  0.27971751  0.52735985  0.27257126  1
  N  N517  1  0.12241022  0.48153286  0.97262875  1
  N  N518  1  0.21278561  0.44957809  0.06292149  1
  N  N519  1  0.12361508  0.53602469  0.06069451  1
  N  N520  1  0.05765730  0.10517825  0.08715889  1
  N  N521  1  0.70157132  0.46876929  0.08312928  1
  N  N522  1  0.69921181  0.24545413  0.72666178  1
  N  N523  1  0.85078881  0.28639135  0.02573715  1
  N  N524  1  0.76125643  0.32058794  0.93559982  1
  N  N525  1  0.85313099  0.24116056  0.93712367  1
  N  N526  1  0.58472500  0.16090576  0.58868199  1
  N  N527  1  0.22495189  0.80541511  0.58413933  1
  N  N528  1  0.22028249  0.02735985  0.22742874  1
  N  N529  1  0.37758978  0.98153286  0.52737125  1
  N  N530  1  0.28721439  0.94957809  0.43707851  1
  N  N531  1  0.37638492  0.03602469  0.43930549  1
  N  N532  1  0.55765730  0.60517825  0.08715889  1
  N  N533  1  0.20157132  0.96876929  0.08312928  1
  N  N534  1  0.19921181  0.74545413  0.72666178  1
  N  N535  1  0.35078881  0.78639135  0.02573715  1
  N  N536  1  0.26125643  0.82058794  0.93559982  1
  N  N537  1  0.35313099  0.74116056  0.93712367  1
  N  N538  1  0.08472500  0.66090576  0.58868199  1
  N  N539  1  0.72495189  0.30541511  0.58413933  1
  N  N540  1  0.72028249  0.52735985  0.22742874  1
  N  N541  1  0.87758978  0.48153286  0.52737125  1
  N  N542  1  0.78721439  0.44957809  0.43707851  1
  N  N543  1  0.87638492  0.53602469  0.43930549  1
  N  N544  1  0.05765730  0.89482175  0.58715889  1
  N  N545  1  0.70157132  0.53123071  0.58312928  1
  N  N546  1  0.69921181  0.75454587  0.22666178  1
  N  N547  1  0.85078881  0.71360865  0.52573715  1
  N  N548  1  0.76125643  0.67941206  0.43559982  1
  N  N549  1  0.85313099  0.75883944  0.43712367  1
  N  N550  1  0.58472500  0.83909424  0.08868199  1
  N  N551  1  0.22495189  0.19458489  0.08413933  1
  N  N552  1  0.22028249  0.97264015  0.72742874  1
  N  N553  1  0.37758978  0.01846714  0.02737125  1
  N  N554  1  0.28721439  0.05042191  0.93707851  1
  N  N555  1  0.37638492  0.96397531  0.93930549  1
  N  N556  1  0.55765730  0.39482175  0.58715889  1
  N  N557  1  0.20157132  0.03123071  0.58312928  1
  N  N558  1  0.19921181  0.25454587  0.22666178  1
  N  N559  1  0.35078881  0.21360865  0.52573715  1
  N  N560  1  0.26125643  0.17941206  0.43559982  1
  N  N561  1  0.35313099  0.25883944  0.43712367  1
  N  N562  1  0.08472500  0.33909424  0.08868199  1
  N  N563  1  0.72495189  0.69458489  0.08413933  1
  N  N564  1  0.72028249  0.47264015  0.72742874  1
  N  N565  1  0.87758978  0.51846714  0.02737125  1
  N  N566  1  0.78721439  0.55042191  0.93707851  1
  N  N567  1  0.87638492  0.46397531  0.93930549  1
  N  N568  1  0.94234270  0.89482175  0.91284111  1
  N  N569  1  0.29842868  0.53123071  0.91687072  1
  N  N570  1  0.30078819  0.75454587  0.27333822  1
  N  N571  1  0.14921119  0.71360865  0.97426285  1
  N  N572  1  0.23874357  0.67941206  0.06440018  1
  N  N573  1  0.14686901  0.75883944  0.06287633  1
  N  N574  1  0.41527500  0.83909424  0.41131801  1
  N  N575  1  0.77504811  0.19458489  0.41586067  1
  N  N576  1  0.77971751  0.97264015  0.77257126  1
  N  N577  1  0.62241022  0.01846714  0.47262875  1
  N  N578  1  0.71278561  0.05042191  0.56292149  1
  N  N579  1  0.62361508  0.96397531  0.56069451  1
  N  N580  1  0.44234270  0.39482175  0.91284111  1
  N  N581  1  0.79842868  0.03123071  0.91687072  1
  N  N582  1  0.80078819  0.25454587  0.27333822  1
  N  N583  1  0.64921119  0.21360865  0.97426285  1
  N  N584  1  0.73874357  0.17941206  0.06440018  1
  N  N585  1  0.64686901  0.25883944  0.06287633  1
  N  N586  1  0.91527500  0.33909424  0.41131801  1
  N  N587  1  0.27504811  0.69458489  0.41586067  1
  N  N588  1  0.27971751  0.47264015  0.77257126  1
  N  N589  1  0.12241022  0.51846714  0.47262875  1
  N  N590  1  0.21278561  0.55042191  0.56292149  1
  N  N591  1  0.12361508  0.46397531  0.56069451  1
