# generated using pymatgen
data_CdH18C27(N3O2)2
_symmetry_space_group_name_H-M   'P 1'
_cell_length_a   11.28455047
_cell_length_b   13.79991388
_cell_length_c   24.61263957
_cell_angle_alpha   89.99996864
_cell_angle_beta   90.00001636
_cell_angle_gamma   114.63397247
_symmetry_Int_Tables_number   1
_chemical_formula_structural   CdH18C27(N3O2)2
_chemical_formula_sum   'Cd4 H72 C108 N24 O16'
_cell_volume   3483.99495862
_cell_formula_units_Z   4
loop_
 _symmetry_equiv_pos_site_id
 _symmetry_equiv_pos_as_xyz
  1  'x, y, z'
loop_
 _atom_site_type_symbol
 _atom_site_label
 _atom_site_symmetry_multiplicity
 _atom_site_fract_x
 _atom_site_fract_y
 _atom_site_fract_z
 _atom_site_occupancy
 _atom_site_charge
  Cd  Cd0  1  0.35623813  0.17405766  0.83766832  1 0.818019
  Cd  Cd1  1  0.85623803  0.67405782  0.66233179  1 0.818033
  Cd  Cd2  1  0.64376148  0.82594238  0.16233176  1 0.818024
  Cd  Cd3  1  0.14376157  0.32594220  0.33766836  1 0.818024
  H  H4  1  0.19396483  0.77997098  0.69792963  1 0.128082
  H  H5  1  0.42363571  0.59810163  0.84950369  1 0.08157
  H  H6  1  0.36968043  0.88964061  0.85022571  1 0.112044
  H  H7  1  0.40861482  0.44573370  0.05716309  1 0.130034
  H  H8  1  0.07464971  0.16936117  0.23535723  1 0.135525
  H  H9  1  0.13031834  0.61035837  0.35022571  1 0.112035
  H  H10  1  0.97765663  0.93424809  0.62911788  1 0.109369
  H  H11  1  0.88153484  0.41082711  0.19950698  1 0.100836
  H  H12  1  0.63429452  0.01225322  0.32799378  1 0.128567
  H  H13  1  0.89560460  0.04394289  0.08415542  1 0.093647
  H  H14  1  0.38425889  0.16358138  0.68380307  1 0.165202
  H  H15  1  0.81730066  0.21047867  0.61183081  1 0.08757
  H  H16  1  0.18269931  0.78952143  0.38816913  1 0.08757
  H  H17  1  0.86968135  0.38964159  0.64977433  1 0.112025
  H  H18  1  0.81257065  0.80827846  0.04595410  1 0.109568
  H  H19  1  0.60439536  0.45605740  0.58415548  1 0.093651
  H  H20  1  0.07492247  0.16392204  0.72807776  1 0.104442
  H  H21  1  0.53867713  0.30419605  0.04428144  1 0.123165
  H  H22  1  0.71499704  0.97212949  0.65791354  1 0.096501
  H  H23  1  0.57630301  0.22897967  0.94260301  1 0.126158
  H  H24  1  0.42369728  0.77102063  0.05739696  1 0.126171
  H  H25  1  0.47765664  0.43424802  0.87088216  1 0.109373
  H  H26  1  0.61574150  0.83641850  0.31619672  1 0.165198
  H  H27  1  0.57464965  0.66936118  0.26464277  1 0.13552
  H  H28  1  0.14533585  0.11343554  0.06662408  1 0.131886
  H  H29  1  0.39560445  0.54394283  0.41584447  1 0.093579
  H  H30  1  0.07630293  0.72897968  0.55739709  1 0.126187
  H  H31  1  0.21499734  0.47212936  0.84208678  1 0.096497
  H  H32  1  0.78500346  0.52787047  0.15791298  1 0.096498
  H  H33  1  0.64933482  0.52083002  0.75173898  1 0.113481
  H  H34  1  0.92507928  0.83607867  0.27192159  1 0.104448
  H  H35  1  0.11846531  0.58917279  0.80049323  1 0.100839
  H  H36  1  0.18742963  0.19172170  0.95404593  1 0.109546
  H  H37  1  0.09138536  0.05426647  0.55716305  1 0.130039
  H  H38  1  0.31257058  0.30827845  0.45404584  1 0.109563
  H  H39  1  0.64533571  0.61343557  0.43337592  1 0.131887
  H  H40  1  0.59138523  0.55426641  0.94283693  1 0.130038
  H  H41  1  0.38153499  0.91082728  0.30049286  1 0.100825
  H  H42  1  0.90861473  0.94573353  0.44283685  1 0.130035
  H  H43  1  0.02234353  0.06575206  0.37088214  1 0.10939
  H  H44  1  0.92369734  0.27102073  0.44260293  1 0.126194
  H  H45  1  0.31729976  0.71047731  0.88816926  1 0.087551
  H  H46  1  0.46132318  0.69580407  0.95571855  1 0.123149
  H  H47  1  0.10439545  0.95605736  0.91584452  1 0.09365
  H  H48  1  0.57636476  0.40189844  0.15049658  1 0.081592
  H  H49  1  0.14933486  0.02082999  0.74826100  1 0.113481
  H  H50  1  0.42507916  0.33607895  0.22807831  1 0.104437
  H  H51  1  0.13429463  0.51225351  0.17200607  1 0.128566
  H  H52  1  0.35066488  0.47917003  0.24826098  1 0.113499
  H  H53  1  0.57492240  0.66392158  0.77192227  1 0.10444
  H  H54  1  0.03867699  0.80419589  0.45571860  1 0.123153
  H  H55  1  0.11574167  0.33641853  0.18380312  1 0.165198
  H  H56  1  0.36570560  0.98774666  0.67200606  1 0.128593
  H  H57  1  0.42535068  0.33063841  0.73535721  1 0.135525
  H  H58  1  0.35466448  0.38656441  0.56662402  1 0.13189
  H  H59  1  0.80603522  0.22002902  0.30207044  1 0.128083
  H  H60  1  0.96132325  0.19580420  0.54428135  1 0.123161
  H  H61  1  0.30603540  0.72002918  0.19792946  1 0.128076
  H  H62  1  0.68269968  0.28952233  0.11183082  1 0.087587
  H  H63  1  0.88425913  0.66358135  0.81619709  1 0.1652
  H  H64  1  0.07636464  0.90189784  0.34950343  1 0.081589
  H  H65  1  0.68742961  0.69172176  0.54595404  1 0.109543
  H  H66  1  0.85066494  0.97916988  0.25173891  1 0.113481
  H  H67  1  0.52234372  0.56575204  0.12911772  1 0.10939
  H  H68  1  0.92535072  0.83063835  0.76464280  1 0.135525
  H  H69  1  0.63031908  0.11035928  0.14977420  1 0.112041
  H  H70  1  0.92363604  0.09810249  0.65049624  1 0.081592
  H  H71  1  0.69396486  0.27997104  0.80207040  1 0.128084
  H  H72  1  0.86570569  0.48774673  0.82799395  1 0.128591
  H  H73  1  0.85466446  0.88656438  0.93337594  1 0.131894
  H  H74  1  0.61846466  0.08917253  0.69950702  1 0.100833
  H  H75  1  0.28500306  0.02787056  0.34208667  1 0.096502
  C  C76  1  0.82810440  0.88146539  0.42270655  1 -0.265466
  C  C77  1  0.60621826  0.47852423  0.71474512  1 -0.022114
  C  C78  1  0.97469849  0.77140569  0.49011896  1 -0.113602
  C  C79  1  0.78170906  0.77780752  0.44277835  1 0.205111
  C  C80  1  0.21829110  0.22219245  0.55722156  1 0.205213
  C  C81  1  0.28418268  0.20475449  0.30690120  1 0.565433
  C  C82  1  0.91351081  0.33957443  0.66686104  1 -0.1277
  C  C83  1  0.11631468  0.21730781  0.12607233  1 0.217567
  C  C84  1  0.97365278  0.51890886  0.26437819  1 -0.060734
  C  C85  1  0.17574867  0.19491527  0.08096934  1 -0.264091
  C  C86  1  0.82449359  0.15674578  0.32101758  1 -0.026483
  C  C87  1  0.14075250  0.35187073  0.78167964  1 -0.071088
  C  C88  1  0.91257869  0.04922530  0.12765778  1 0.078959
  C  C89  1  0.11365132  0.75972720  0.35458561  1 -0.103223
  C  C90  1  -0.00189132  0.88472451  0.79218729  1 -0.083952
  C  C91  1  0.23830964  0.55504998  0.16591271  1 -0.096156
  C  C92  1  0.34373986  0.05249970  0.30534380  1 -0.099783
  C  C93  1  0.02634673  0.48109081  0.73562235  1 -0.060696
  C  C94  1  0.66077216  0.82000661  0.35237870  1 -0.235548
  C  C95  1  0.38634826  0.74027265  0.85458547  1 -0.103254
  C  C96  1  0.78418241  0.70475457  0.19309880  1 0.5654
  C  C97  1  0.85924756  0.64812907  0.21832026  1 -0.071105
  C  C98  1  0.50189150  0.61527530  0.29218724  1 -0.083939
  C  C99  1  0.47469868  0.27140580  0.00988104  1 -0.113586
  C  C100  1  0.50997509  0.76795326  0.03960439  1 -0.025781
  C  C101  1  0.94074176  0.68579225  0.26537418  1 0.062161
  C  C102  1  0.28170927  0.27780761  0.05722164  1 0.205127
  C  C103  1  0.49002523  0.23204717  0.96039555  1 -0.025783
  C  C104  1  0.23326262  0.09864814  0.62259898  1 0.214298
  C  C105  1  0.02989192  0.21281159  0.71076613  1 -0.129168
  C  C106  1  0.94587211  0.17694727  0.66729013  1 -0.097491
  C  C107  1  0.97498878  0.55646564  0.71218181  1 0.562367
  C  C108  1  0.52634642  0.98109021  0.76437780  1 -0.060832
  C  C109  1  0.17189572  0.11853461  0.57729333  1 -0.265491
  C  C110  1  0.71295039  0.79273381  0.03528882  1 0.099598
  C  C111  1  0.71581677  0.79524502  0.69309886  1 0.565407
  C  C112  1  0.10621822  0.97852423  0.78525487  1 -0.022108
  C  C113  1  0.67574851  0.69491535  0.41903067  1 -0.264093
  C  C114  1  0.47498803  0.05646493  0.78781835  1 0.562526
  C  C115  1  0.88634874  0.24027279  0.64541444  1 -0.103216
  C  C116  1  0.02501052  0.44353427  0.28781904  1 0.562468
  C  C117  1  0.76169056  0.44495002  0.83408734  1 -0.09619
  C  C118  1  0.55412842  0.32305353  0.16729040  1 -0.097468
  C  C119  1  0.08648883  0.66042581  0.33313904  1 -0.127708
  C  C120  1  0.49810861  0.38472450  0.70781273  1 -0.083949
  C  C121  1  0.89378159  0.02147577  0.21474511  1 -0.022113
  C  C122  1  0.35924766  0.14812970  0.28167951  1 -0.071074
  C  C123  1  0.15626026  0.44750039  0.80534385  1 -0.099796
  C  C124  1  0.55973186  0.41961367  0.85661886  1 0.086016
  C  C125  1  0.61365168  0.25972817  0.14541436  1 -0.103272
  C  C126  1  0.32810433  0.38146543  0.07729340  1 -0.265478
  C  C127  1  0.97010899  0.78718890  0.28923358  1 -0.129188
  C  C128  1  0.52501079  0.94353393  0.21218181  1 0.562421
  C  C129  1  0.28704977  0.20726640  0.96471118  1 0.099658
  C  C130  1  0.44587196  0.67694601  0.83270987  1 -0.097453
  C  C131  1  0.49983274  0.12038927  0.21162055  1 0.056502
  C  C132  1  0.47010885  0.28718932  0.21076634  1 -0.129174
  C  C133  1  0.26169051  0.94495001  0.66591269  1 -0.096188
  C  C134  1  0.67550645  0.34325421  0.82101764  1 -0.026487
  C  C135  1  0.32449370  0.65674586  0.17898227  1 -0.026481
  C  C136  1  0.21295074  0.29273382  0.46471107  1 0.099649
  C  C137  1  0.60088755  0.01215133  0.71757799  1 -0.109616
  C  C138  1  0.44026837  0.58038632  0.14338113  1 0.085969
  C  C139  1  0.05973168  0.91961376  0.64338114  1 0.086008
  C  C140  1  0.47365291  0.01890920  0.23562162  1 -0.060715
  C  C141  1  0.73830954  0.05504986  0.33408722  1 -0.096167
  C  C142  1  0.33922805  0.17999328  0.64762117  1 -0.235532
  C  C143  1  0.58648923  0.16042622  0.16686088  1 -0.127706
  C  C144  1  0.67189578  0.61853456  0.92270666  1 -0.265495
  C  C145  1  0.05412826  0.82305304  0.33270955  1 -0.097472
  C  C146  1  0.52989158  0.71281150  0.78923394  1 -0.12917
  C  C147  1  0.55925798  0.81420718  0.76537441  1 0.062159
  C  C148  1  -0.00016720  0.62038865  0.28837935  1 0.056496
  C  C149  1  0.00189146  0.11527525  0.20781268  1 -0.08394
  C  C150  1  0.39378148  0.52147577  0.28525483  1 -0.022137
  C  C151  1  0.44074174  0.18579242  0.23462571  1 0.062131
  C  C152  1  0.08742118  0.95077491  0.87234221  1 0.078961
  C  C153  1  0.41351037  0.83957260  0.83313909  1 -0.127672
  C  C154  1  0.32425165  0.30508468  0.58096922  1 -0.264127
  C  C155  1  0.16077213  0.32000673  0.14762126  1 -0.235535
  C  C156  1  0.02530167  0.22859439  0.50988101  1 -0.113612
  C  C157  1  0.71829113  0.72219235  0.94277840  1 0.205224
  C  C158  1  0.38368564  0.28269208  0.62607232  1 0.21758
  C  C159  1  0.82425170  0.80508458  0.91903077  1 -0.264128
  C  C160  1  0.41257863  0.54922528  0.37234220  1 0.07908
  C  C161  1  0.50016648  0.87961094  0.78837954  1 0.056584
  C  C162  1  0.39911197  0.98784856  0.28242197  1 -0.109601
  C  C163  1  0.00016727  0.37961143  0.71162075  1 0.056486
  C  C164  1  0.17550641  0.84325416  0.67898239  1 -0.026482
  C  C165  1  0.64075202  0.85187066  0.71832063  1 -0.071128
  C  C166  1  0.73326259  0.59864807  0.87740109  1 0.214298
  C  C167  1  0.83922824  0.67999318  0.85237885  1 -0.235525
  C  C168  1  0.00997502  0.26795330  0.46039548  1 -0.025772
  C  C169  1  0.78704945  0.70726632  0.53528886  1 0.099699
  C  C170  1  0.76673751  0.90135175  0.37740091  1 0.214326
  C  C171  1  0.21581677  0.29524505  0.80690119  1 0.565389
  C  C172  1  0.61631456  0.71730786  0.37392761  1 0.217574
  C  C173  1  0.05925830  0.31420802  0.73462563  1 0.062163
  C  C174  1  0.52530165  0.72859435  0.99011892  1 -0.113567
  C  C175  1  0.88368571  0.78269211  0.87392774  1 0.217576
  C  C176  1  0.65626022  0.94750014  0.69465628  1 -0.099781
  C  C177  1  0.99002515  0.73204695  0.53960451  1 -0.0258
  C  C178  1  0.84374024  0.55249985  0.19465599  1 -0.099796
  C  C179  1  0.58742114  0.45077491  0.62765777  1 0.078959
  C  C180  1  0.26673767  0.40135187  0.12259892  1 0.214325
  C  C181  1  0.94026844  0.08038618  0.35661884  1 0.085967
  C  C182  1  0.89911213  0.48784843  0.21757769  1 -0.109611
  C  C183  1  0.10088840  0.51215160  0.78242245  1 -0.109638
  N  N184  1  0.12714434  0.30693074  0.43279401  1 -0.276295
  N  N185  1  0.18711980  0.99326201  0.64305254  1 -0.00344
  N  N186  1  0.68711983  0.49326195  0.85694750  1 -0.003449
  N  N187  1  0.83886396  0.98173218  0.16482851  1 -0.272936
  N  N188  1  0.81288031  0.00673793  0.35694736  1 -0.003433
  N  N189  1  0.87285584  0.69306952  0.56720600  1 -0.276317
  N  N190  1  0.84466252  0.75464677  0.48771302  1 0.001392
  N  N191  1  0.05084333  0.82912683  0.66494397  1 -0.273515
  N  N192  1  0.44915674  0.67087310  0.16494387  1 -0.273501
  N  N193  1  0.16113556  0.01826810  0.83517142  1 -0.272928
  N  N194  1  0.34466264  0.25464687  0.01228694  1 0.001352
  N  N195  1  0.33886385  0.48173215  0.33517139  1 -0.272952
  N  N196  1  0.65533767  0.74535328  0.98771309  1 0.001265
  N  N197  1  0.15533771  0.24535325  0.51228691  1 0.001295
  N  N198  1  0.31288043  0.50673807  0.14305255  1 -0.003442
  N  N199  1  0.55084338  0.32912687  0.83505606  1 -0.273516
  N  N200  1  0.94915669  0.17087312  0.33505603  1 -0.273503
  N  N201  1  0.48660120  0.36785661  0.65211802  1 0.006189
  N  N202  1  0.01339893  0.13214329  0.15211803  1 0.006175
  N  N203  1  0.66113560  0.51826809  0.66482858  1 -0.27293
  N  N204  1  0.98660123  0.86785653  0.84788199  1 0.006188
  N  N205  1  0.51339883  0.63214325  0.34788191  1 0.006149
  N  N206  1  0.62714443  0.80693079  0.06720586  1 -0.276223
  N  N207  1  0.37285593  0.19306957  0.93279408  1 -0.276265
  O  O208  1  0.75170974  0.73751289  0.72434540  1 -0.553674
  O  O209  1  0.24829038  0.26248716  0.27565469  1 -0.553692
  O  O210  1  0.74829050  0.76248701  0.22434549  1 -0.553653
  O  O211  1  0.25170998  0.23751316  0.77565467  1 -0.553654
  O  O212  1  0.97280044  0.56590517  0.66064803  1 -0.560218
  O  O213  1  0.75464836  0.69046005  0.14319506  1 -0.599494
  O  O214  1  0.47279973  0.06590441  0.83935230  1 -0.560274
  O  O215  1  0.52719382  0.93409282  0.16064609  1 -0.560263
  O  O216  1  0.93651924  0.60878995  0.74511562  1 -0.579738
  O  O217  1  0.02719386  0.43409286  0.33935345  1 -0.560255
  O  O218  1  0.74535027  0.80953928  0.64319502  1 -0.599475
  O  O219  1  0.43651838  0.10878895  0.75488461  1 -0.579809
  O  O220  1  0.25464906  0.19046011  0.35680512  1 -0.599496
  O  O221  1  0.06348385  0.39121260  0.25488580  1 -0.57979
  O  O222  1  0.56348297  0.89121293  0.24511411  1 -0.579744
  O  O223  1  0.24535009  0.30953912  0.85680525  1 -0.599482
