# generated using pymatgen
data_CdH4(C5O2)2
_symmetry_space_group_name_H-M   'P 1'
_cell_length_a   20.29217378
_cell_length_b   20.31365535
_cell_length_c   20.31365216
_cell_angle_alpha   109.35822479
_cell_angle_beta   110.20370291
_cell_angle_gamma   69.79618527
_symmetry_Int_Tables_number   1
_chemical_formula_structural   CdH4(C5O2)2
_chemical_formula_sum   'Cd12 H48 C120 O48'
_cell_volume   7157.46989331
_cell_formula_units_Z   12
loop_
 _symmetry_equiv_pos_site_id
 _symmetry_equiv_pos_as_xyz
  1  'x, y, z'
loop_
 _atom_site_type_symbol
 _atom_site_label
 _atom_site_symmetry_multiplicity
 _atom_site_fract_x
 _atom_site_fract_y
 _atom_site_fract_z
 _atom_site_occupancy
 _atom_site_charge
  Cd  Cd0  1  0.85691468  0.29357928  0.96422672  1 0.966186
  Cd  Cd1  1  0.96409543  0.19491162  0.86208215  1 0.966054
  Cd  Cd2  1  0.69873401  0.46625391  0.35980473  1 0.96791
  Cd  Cd3  1  0.64308532  0.96422672  0.29357928  1 0.966182
  Cd  Cd4  1  0.53590457  0.86208215  0.19491162  1 0.966052
  Cd  Cd5  1  0.80126598  0.35980473  0.46625391  1 0.967902
  Cd  Cd6  1  0.14308532  0.70642072  0.03577328  1 0.966186
  Cd  Cd7  1  0.03590457  0.80508838  0.13791785  1 0.966054
  Cd  Cd8  1  0.30126599  0.53374609  0.64019527  1 0.96791
  Cd  Cd9  1  0.35691468  0.03577328  0.70642072  1 0.966182
  Cd  Cd10  1  0.46409543  0.13791785  0.80508838  1 0.966052
  Cd  Cd11  1  0.19873402  0.64019527  0.53374609  1 0.967902
  H  H12  1  0.69546680  0.16835061  0.85340985  1 0.12843
  H  H13  1  0.66408229  0.96217157  0.71868203  1 0.121196
  H  H14  1  0.87123806  0.00876665  0.77194129  1 0.116546
  H  H15  1  0.70969416  0.90390857  0.60650665  1 0.110749
  H  H16  1  0.88696057  0.71170138  0.59143083  1 0.108914
  H  H17  1  0.90270183  0.88533581  0.78332843  1 0.108504
  H  H18  1  0.72213213  0.87443116  0.48339699  1 0.117118
  H  H19  1  0.64990525  0.69691086  0.31969386  1 0.12882
  H  H20  1  0.77633139  0.66712609  0.53132148  1 0.121754
  H  H21  1  0.01053505  0.72053801  0.62232564  1 0.116244
  H  H22  1  0.17663656  0.64796509  0.80211415  1 0.129435
  H  H23  1  0.96567753  0.77642546  0.83003813  1 0.121374
  H  H24  1  0.80453320  0.85340985  0.16835061  1 0.12843
  H  H25  1  0.83591771  0.71868203  0.96217157  1 0.1212
  H  H26  1  0.62876194  0.77194129  0.00876665  1 0.116547
  H  H27  1  0.79030584  0.60650665  0.90390857  1 0.110751
  H  H28  1  0.61303943  0.59143083  0.71170138  1 0.108916
  H  H29  1  0.59729818  0.78332843  0.88533581  1 0.108537
  H  H30  1  0.77786787  0.48339699  0.87443116  1 0.117134
  H  H31  1  0.85009475  0.31969386  0.69691086  1 0.128821
  H  H32  1  0.72366861  0.53132148  0.66712609  1 0.121765
  H  H33  1  0.48946495  0.62232564  0.72053801  1 0.116245
  H  H34  1  0.32336344  0.80211415  0.64796509  1 0.129432
  H  H35  1  0.53432247  0.83003814  0.77642546  1 0.121373
  H  H36  1  0.30453320  0.83164939  0.14659015  1 0.12843
  H  H37  1  0.33591771  0.03782843  0.28131797  1 0.121196
  H  H38  1  0.12876194  0.99123335  0.22805871  1 0.116546
  H  H39  1  0.29030584  0.09609143  0.39349335  1 0.110749
  H  H40  1  0.11303943  0.28829862  0.40856917  1 0.108914
  H  H41  1  0.09729817  0.11466419  0.21667157  1 0.108504
  H  H42  1  0.27786787  0.12556884  0.51660301  1 0.117118
  H  H43  1  0.35009475  0.30308914  0.68030614  1 0.12882
  H  H44  1  0.22366861  0.33287391  0.46867852  1 0.121754
  H  H45  1  0.98946495  0.27946199  0.37767436  1 0.116244
  H  H46  1  0.82336344  0.35203491  0.19788585  1 0.129435
  H  H47  1  0.03432247  0.22357454  0.16996187  1 0.121374
  H  H48  1  0.19546680  0.14659015  0.83164939  1 0.12843
  H  H49  1  0.16408229  0.28131797  0.03782843  1 0.1212
  H  H50  1  0.37123806  0.22805871  0.99123335  1 0.116547
  H  H51  1  0.20969416  0.39349335  0.09609143  1 0.110751
  H  H52  1  0.38696057  0.40856917  0.28829862  1 0.108916
  H  H53  1  0.40270182  0.21667157  0.11466419  1 0.108537
  H  H54  1  0.22213213  0.51660301  0.12556884  1 0.117134
  H  H55  1  0.14990525  0.68030614  0.30308914  1 0.128821
  H  H56  1  0.27633139  0.46867852  0.33287391  1 0.121765
  H  H57  1  0.51053505  0.37767436  0.27946199  1 0.116245
  H  H58  1  0.67663656  0.19788585  0.35203491  1 0.129432
  H  H59  1  0.46567753  0.16996186  0.22357454  1 0.121373
  C  C60  1  0.83531618  0.14501394  0.85244127  1 0.603562
  C  C61  1  0.78854156  0.09347218  0.81629772  1 -0.035151
  C  C62  1  0.71703284  0.11496872  0.82189053  1 -0.091395
  C  C63  1  0.67259340  0.06753613  0.78637535  1 -0.020166
  C  C64  1  0.69953010  -0.00143635  0.74546108  1 -0.116467
  C  C65  1  0.77175736  0.97591505  0.74084184  1 0.064885
  C  C66  1  0.81560755  0.02423336  0.77623448  1 -0.11887
  C  C67  1  0.59675641  0.09141626  0.79355520  1 0.560109
  C  C68  1  0.80238912  0.90258107  0.69992463  1 0.080628
  C  C69  1  0.76369875  0.87299039  0.63058206  1 -0.183201
  C  C70  1  0.79381388  0.80439638  0.59114956  1 0.079975
  C  C71  1  0.86329169  0.76507511  0.62202467  1 -0.180225
  C  C72  1  0.90318415  0.79375731  0.69116305  1 0.079414
  C  C73  1  0.87202783  0.86243745  0.72960907  1 -0.180617
  C  C74  1  0.75378360  0.77474679  0.51692727  1 0.067242
  C  C75  1  0.71918428  0.81853255  0.46755047  1 -0.119752
  C  C76  1  0.68231836  0.79070494  0.39666418  1 -0.036279
  C  C77  1  0.67873251  0.71879402  0.37460042  1 -0.091049
  C  C78  1  0.71288321  0.67485634  0.42361046  1 -0.021339
  C  C79  1  0.75063500  0.70253237  0.49412357  1 -0.118264
  C  C80  1  0.64803488  0.83726608  0.34393733  1 0.602403
  C  C81  1  0.70797299  0.59871415  0.40112202  1 0.560473
  C  C82  1  0.97789546  0.75308140  0.72182726  1 0.065842
  C  C83  1  0.02686863  0.71780318  0.67859663  1 -0.118723
  C  C84  1  0.09810923  0.68027218  0.70714234  1 -0.037194
  C  C85  1  0.12141421  0.67718011  0.77961009  1 -0.091529
  C  C86  1  0.07324841  0.71261728  0.82331372  1 -0.019469
  C  C87  1  0.00207498  0.75024878  0.79463210  1 -0.117882
  C  C88  1  0.09786744  0.71047942  0.90077648  1 0.560756
  C  C89  1  0.15009954  0.64541096  0.66083931  1 0.604778
  C  C90  1  0.66468382  0.85244127  0.14501394  1 0.603559
  C  C91  1  0.71145844  0.81629772  0.09347218  1 -0.035149
  C  C92  1  0.78296716  0.82189053  0.11496872  1 -0.091399
  C  C93  1  0.82740660  0.78637535  0.06753613  1 -0.020155
  C  C94  1  0.80046990  0.74546108  -0.00143635  1 -0.116486
  C  C95  1  0.72824264  0.74084184  0.97591505  1 0.064891
  C  C96  1  0.68439245  0.77623448  0.02423336  1 -0.118871
  C  C97  1  0.90324359  0.79355519  0.09141626  1 0.560096
  C  C98  1  0.69761088  0.69992463  0.90258107  1 0.080638
  C  C99  1  0.73630125  0.63058206  0.87299039  1 -0.183151
  C  C100  1  0.70618612  0.59114956  0.80439638  1 0.080738
  C  C101  1  0.63670831  0.62202467  0.76507511  1 -0.180171
  C  C102  1  0.59681585  0.69116305  0.79375731  1 0.079415
  C  C103  1  0.62797217  0.72960907  0.86243745  1 -0.180666
  C  C104  1  0.74621640  0.51692727  0.77474679  1 0.064642
  C  C105  1  0.78081572  0.46755047  0.81853255  1 -0.118948
  C  C106  1  0.81768164  0.39666418  0.79070494  1 -0.036235
  C  C107  1  0.82126749  0.37460042  0.71879402  1 -0.091041
  C  C108  1  0.78711679  0.42361046  0.67485634  1 -0.021297
  C  C109  1  0.74936500  0.49412357  0.70253237  1 -0.117452
  C  C110  1  0.85196513  0.34393733  0.83726608  1 0.602394
  C  C111  1  0.79202701  0.40112202  0.59871415  1 0.56048
  C  C112  1  0.52210454  0.72182726  0.75308140  1 0.065842
  C  C113  1  0.47313137  0.67859663  0.71780318  1 -0.118724
  C  C114  1  0.40189077  0.70714234  0.68027218  1 -0.037194
  C  C115  1  0.37858579  0.77961009  0.67718011  1 -0.091527
  C  C116  1  0.42675159  0.82331372  0.71261728  1 -0.019465
  C  C117  1  0.49792502  0.79463210  0.75024878  1 -0.117882
  C  C118  1  0.40213257  0.90077648  0.71047942  1 0.560727
  C  C119  1  0.34990046  0.66083931  0.64541096  1 0.604783
  C  C120  1  0.16468382  0.85498606  0.14755873  1 0.603562
  C  C121  1  0.21145844  0.90652782  0.18370228  1 -0.035151
  C  C122  1  0.28296716  0.88503128  0.17810947  1 -0.091394
  C  C123  1  0.32740660  0.93246387  0.21362465  1 -0.020166
  C  C124  1  0.30046990  0.00143635  0.25453892  1 -0.116467
  C  C125  1  0.22824264  0.02408495  0.25915816  1 0.064885
  C  C126  1  0.18439245  0.97576664  0.22376552  1 -0.11887
  C  C127  1  0.40324359  0.90858374  0.20644480  1 0.560109
  C  C128  1  0.19761088  0.09741893  0.30007537  1 0.080628
  C  C129  1  0.23630125  0.12700961  0.36941794  1 -0.1832
  C  C130  1  0.20618612  0.19560362  0.40885044  1 0.079975
  C  C131  1  0.13670831  0.23492489  0.37797533  1 -0.180226
  C  C132  1  0.09681585  0.20624269  0.30883695  1 0.079415
  C  C133  1  0.12797217  0.13756255  0.27039093  1 -0.180617
  C  C134  1  0.24621640  0.22525321  0.48307273  1 0.067242
  C  C135  1  0.28081572  0.18146745  0.53244953  1 -0.119752
  C  C136  1  0.31768164  0.20929506  0.60333582  1 -0.036279
  C  C137  1  0.32126749  0.28120598  0.62539958  1 -0.091049
  C  C138  1  0.28711679  0.32514366  0.57638954  1 -0.021339
  C  C139  1  0.24936500  0.29746763  0.50587643  1 -0.118264
  C  C140  1  0.35196512  0.16273392  0.65606267  1 0.602403
  C  C141  1  0.29202701  0.40128585  0.59887798  1 0.560474
  C  C142  1  0.02210454  0.24691860  0.27817274  1 0.065842
  C  C143  1  0.97313137  0.28219682  0.32140337  1 -0.118723
  C  C144  1  0.90189077  0.31972782  0.29285766  1 -0.037194
  C  C145  1  0.87858579  0.32281989  0.22038991  1 -0.091529
  C  C146  1  0.92675159  0.28738272  0.17668628  1 -0.019469
  C  C147  1  0.99792502  0.24975122  0.20536790  1 -0.117883
  C  C148  1  0.90213256  0.28952058  0.09922352  1 0.560756
  C  C149  1  0.84990046  0.35458904  0.33916069  1 0.604779
  C  C150  1  0.33531618  0.14755873  0.85498606  1 0.603559
  C  C151  1  0.28854156  0.18370228  0.90652782  1 -0.035149
  C  C152  1  0.21703284  0.17810947  0.88503128  1 -0.091399
  C  C153  1  0.17259340  0.21362465  0.93246387  1 -0.020155
  C  C154  1  0.19953010  0.25453892  0.00143635  1 -0.116486
  C  C155  1  0.27175736  0.25915816  0.02408495  1 0.064891
  C  C156  1  0.31560755  0.22376552  0.97576664  1 -0.118871
  C  C157  1  0.09675641  0.20644481  0.90858374  1 0.560096
  C  C158  1  0.30238912  0.30007537  0.09741893  1 0.080638
  C  C159  1  0.26369875  0.36941794  0.12700961  1 -0.183151
  C  C160  1  0.29381388  0.40885044  0.19560362  1 0.080738
  C  C161  1  0.36329169  0.37797533  0.23492489  1 -0.180171
  C  C162  1  0.40318415  0.30883695  0.20624269  1 0.079415
  C  C163  1  0.37202783  0.27039093  0.13756255  1 -0.180666
  C  C164  1  0.25378360  0.48307273  0.22525321  1 0.064642
  C  C165  1  0.21918428  0.53244953  0.18146745  1 -0.118948
  C  C166  1  0.18231836  0.60333582  0.20929506  1 -0.036235
  C  C167  1  0.17873251  0.62539958  0.28120598  1 -0.091041
  C  C168  1  0.21288321  0.57638954  0.32514366  1 -0.021297
  C  C169  1  0.25063500  0.50587643  0.29746763  1 -0.117451
  C  C170  1  0.14803487  0.65606267  0.16273392  1 0.602394
  C  C171  1  0.20797299  0.59887798  0.40128585  1 0.56048
  C  C172  1  0.47789546  0.27817274  0.24691860  1 0.065842
  C  C173  1  0.52686863  0.32140337  0.28219682  1 -0.118724
  C  C174  1  0.59810923  0.29285766  0.31972782  1 -0.037193
  C  C175  1  0.62141421  0.22038991  0.32281989  1 -0.091527
  C  C176  1  0.57324841  0.17668628  0.28738272  1 -0.019465
  C  C177  1  0.50207498  0.20536790  0.24975122  1 -0.117882
  C  C178  1  0.59786743  0.09922352  0.28952058  1 0.560727
  C  C179  1  0.65009954  0.33916069  0.35458904  1 0.604783
  O  O180  1  0.90035698  0.12239942  0.84503124  1 -0.5481
  O  O181  1  0.80729998  0.20721275  0.88770734  1 -0.550559
  O  O182  1  0.57570637  0.15359298  0.83488163  1 -0.540107
  O  O183  1  0.55403855  0.05017814  0.75861332  1 -0.544855
  O  O184  1  0.65506609  0.90212217  0.36681818  1 -0.549239
  O  O185  1  0.61509025  0.80927025  0.28038382  1 -0.551975
  O  O186  1  0.67003198  0.57533117  0.33740018  1 -0.539481
  O  O187  1  0.74115617  0.55834616  0.44591644  1 -0.547468
  O  O188  1  0.05409759  0.74524629  0.94108178  1 -0.547585
  O  O189  1  0.16268181  0.67395413  0.92558957  1 -0.540142
  O  O190  1  0.21390314  0.61143530  0.68915079  1 -0.552539
  O  O191  1  0.12617227  0.65303280  0.59568998  1 -0.549679
  O  O192  1  0.59964303  0.84503124  0.12239942  1 -0.548099
  O  O193  1  0.69270002  0.88770734  0.20721275  1 -0.550556
  O  O194  1  0.92429363  0.83488163  0.15359298  1 -0.540102
  O  O195  1  0.94596145  0.75861332  0.05017814  1 -0.544848
  O  O196  1  0.84493391  0.36681819  0.90212217  1 -0.549237
  O  O197  1  0.88490975  0.28038382  0.80927025  1 -0.551975
  O  O198  1  0.82996802  0.33740018  0.57533117  1 -0.539481
  O  O199  1  0.75884383  0.44591644  0.55834616  1 -0.547469
  O  O200  1  0.44590241  0.94108178  0.74524629  1 -0.547568
  O  O201  1  0.33731819  0.92558957  0.67395413  1 -0.540131
  O  O202  1  0.28609686  0.68915079  0.61143530  1 -0.552538
  O  O203  1  0.37382773  0.59568998  0.65303280  1 -0.549681
  O  O204  1  0.09964302  0.87760058  0.15496876  1 -0.5481
  O  O205  1  0.19270002  0.79278725  0.11229266  1 -0.550559
  O  O206  1  0.42429363  0.84640702  0.16511837  1 -0.540107
  O  O207  1  0.44596145  0.94982186  0.24138668  1 -0.544855
  O  O208  1  0.34493391  0.09787783  0.63318182  1 -0.549239
  O  O209  1  0.38490975  0.19072975  0.71961618  1 -0.551975
  O  O210  1  0.32996802  0.42466883  0.66259982  1 -0.539481
  O  O211  1  0.25884383  0.44165384  0.55408356  1 -0.547468
  O  O212  1  0.94590241  0.25475371  0.05891822  1 -0.547585
  O  O213  1  0.83731819  0.32604587  0.07441043  1 -0.540142
  O  O214  1  0.78609686  0.38856470  0.31084921  1 -0.552539
  O  O215  1  0.87382773  0.34696720  0.40431002  1 -0.549679
  O  O216  1  0.40035697  0.15496876  0.87760058  1 -0.548099
  O  O217  1  0.30729998  0.11229266  0.79278725  1 -0.550557
  O  O218  1  0.07570637  0.16511837  0.84640702  1 -0.540102
  O  O219  1  0.05403855  0.24138668  0.94982186  1 -0.544848
  O  O220  1  0.15506609  0.63318181  0.09787783  1 -0.549237
  O  O221  1  0.11509025  0.71961618  0.19072975  1 -0.551975
  O  O222  1  0.17003198  0.66259982  0.42466883  1 -0.539481
  O  O223  1  0.24115617  0.55408356  0.44165384  1 -0.547469
  O  O224  1  0.55409759  0.05891822  0.25475371  1 -0.547568
  O  O225  1  0.66268181  0.07441043  0.32604587  1 -0.540131
  O  O226  1  0.71390314  0.31084921  0.38856470  1 -0.552538
  O  O227  1  0.62617227  0.40431002  0.34696720  1 -0.549681
