# generated using pymatgen
data_CuH13C12(NO2)2
_symmetry_space_group_name_H-M   'P 1'
_cell_length_a   28.46449361
_cell_length_b   13.25247649
_cell_length_c   8.47749615
_cell_angle_alpha   90.00584097
_cell_angle_beta   91.58305090
_cell_angle_gamma   89.92255725
_symmetry_Int_Tables_number   1
_chemical_formula_structural   CuH13C12(NO2)2
_chemical_formula_sum   'Cu8 H104 C96 N16 O32'
_cell_volume   3196.70028389
_cell_formula_units_Z   8
loop_
 _symmetry_equiv_pos_site_id
 _symmetry_equiv_pos_as_xyz
  1  'x, y, z'
loop_
 _atom_site_type_symbol
 _atom_site_label
 _atom_site_symmetry_multiplicity
 _atom_site_fract_x
 _atom_site_fract_y
 _atom_site_fract_z
 _atom_site_occupancy
 _atom_site_charge
  Cu  Cu0  1  0.28728897  0.79373314  0.45204621  1 0.752829
  Cu  Cu1  1  0.78703258  0.29358979  0.45207600  1 0.750337
  Cu  Cu2  1  0.71298147  0.79364282  0.04793217  1 0.748821
  Cu  Cu3  1  0.21296318  0.29367565  0.04797556  1 0.748364
  Cu  Cu4  1  0.71296771  0.20641057  0.54792357  1 0.750328
  Cu  Cu5  1  0.21271483  0.70627108  0.54794934  1 0.752792
  Cu  Cu6  1  0.28703672  0.20632456  0.95202333  1 0.748325
  Cu  Cu7  1  0.78701846  0.70635764  0.95206821  1 0.748659
  H  H8  1  0.31685784  0.01177211  0.40638155  1 0.09743
  H  H9  1  0.37612735  0.11056956  0.26325457  1 0.122663
  H  H10  1  0.43821774  0.82750986  0.12251093  1 0.108504
  H  H11  1  0.37415043  0.74029697  0.27005002  1 0.093963
  H  H12  1  0.48033960  0.17384406  0.04146192  1 0.136237
  H  H13  1  0.45522590  0.16909620  0.23291594  1 0.149474
  H  H14  1  0.41792465  0.17425777  0.06356953  1 0.155641
  H  H15  1  0.14757283  0.78574459  0.08098899  1 0.106754
  H  H16  1  0.19498578  0.72813635  0.98291983  1 0.131049
  H  H17  1  0.23960572  0.88668848  0.98111569  1 0.094512
  H  H18  1  0.18396163  0.90221453  0.88733286  1 0.086091
  H  H19  1  0.15425236  0.98558383  0.13428920  1 0.110717
  H  H20  1  0.20890643  0.95876489  0.23146821  1 0.129346
  H  H21  1  0.81669914  0.51159406  0.40657858  1 0.097974
  H  H22  1  0.87600404  0.61029232  0.26358071  1 0.122109
  H  H23  1  0.93806572  0.32738918  0.12289456  1 0.108264
  H  H24  1  0.87400718  0.24008304  0.27024815  1 0.094842
  H  H25  1  0.98030677  0.67375022  0.04151089  1 0.136069
  H  H26  1  0.95521102  0.66909297  0.23292711  1 0.149348
  H  H27  1  0.91791109  0.67426805  0.06358182  1 0.155814
  H  H28  1  0.64734558  0.28602467  0.08023892  1 0.106978
  H  H29  1  0.69484139  0.22838592  0.98210783  1 0.13133
  H  H30  1  0.73954930  0.38665353  0.98092644  1 0.094308
  H  H31  1  0.68398033  0.40265623  0.88666677  1 0.086202
  H  H32  1  0.65426166  0.48568228  0.13428097  1 0.110388
  H  H33  1  0.70891502  0.45868894  0.23123179  1 0.129409
  H  H34  1  0.68325132  0.01136905  0.09353427  1 0.097802
  H  H35  1  0.62392074  0.11024788  0.23660805  1 0.121982
  H  H36  1  0.56200236  0.82758115  0.37694097  1 0.108306
  H  H37  1  0.62609152  0.74002711  0.22951473  1 0.095045
  H  H38  1  0.51961628  0.17400448  0.45862294  1 0.136289
  H  H39  1  0.54474728  0.16905114  0.26716561  1 0.149436
  H  H40  1  0.58203057  0.17412544  0.43648666  1 0.155272
  H  H41  1  0.85267669  0.78583199  0.41970350  1 0.10709
  H  H42  1  0.80520164  0.72841662  0.51786774  1 0.13131
  H  H43  1  0.76045179  0.88688154  0.51903146  1 0.094438
  H  H44  1  0.81600719  0.90264019  0.61332933  1 0.08628
  H  H45  1  0.84574520  0.98544497  0.36573808  1 0.110885
  H  H46  1  0.79110514  0.95868282  0.26872451  1 0.129416
  H  H47  1  0.18323915  0.51134984  0.09346215  1 0.097802
  H  H48  1  0.12386227  0.61024429  0.23655477  1 0.121655
  H  H49  1  0.06199063  0.32758404  0.37694763  1 0.108309
  H  H50  1  0.12608087  0.24002414  0.22949889  1 0.095215
  H  H51  1  0.01961255  0.67400423  0.45861775  1 0.136438
  H  H52  1  0.04473895  0.66905654  0.26716801  1 0.149407
  H  H53  1  0.08202444  0.67411489  0.43654620  1 0.155233
  H  H54  1  0.35268915  0.28593648  0.41975910  1 0.10666
  H  H55  1  0.30521221  0.22873614  0.51786187  1 0.130917
  H  H56  1  0.26042001  0.38694240  0.51911570  1 0.094647
  H  H57  1  0.31597453  0.40270443  0.61349472  1 0.086108
  H  H58  1  0.34560287  0.48586533  0.36605597  1 0.110925
  H  H59  1  0.29097451  0.45920174  0.26919686  1 0.129524
  H  H60  1  0.68330109  0.98840612  0.59342139  1 0.097966
  H  H61  1  0.62399624  0.88970758  0.73641920  1 0.12212
  H  H62  1  0.56193451  0.17261082  0.87710528  1 0.108291
  H  H63  1  0.62599314  0.25991666  0.72975160  1 0.094835
  H  H64  1  0.51969333  0.82624967  0.95848910  1 0.136068
  H  H65  1  0.54478910  0.83090685  0.76707259  1 0.149338
  H  H66  1  0.58208911  0.82573172  0.93641818  1 0.155791
  H  H67  1  0.85265457  0.21397540  0.91976084  1 0.106982
  H  H68  1  0.80515871  0.27161402  0.01789221  1 0.131315
  H  H69  1  0.76045076  0.11334629  0.01907359  1 0.094324
  H  H70  1  0.81601990  0.09734366  0.11333352  1 0.086179
  H  H71  1  0.84573863  0.01431761  0.86571881  1 0.110412
  H  H72  1  0.79108514  0.04131092  0.76876816  1 0.129433
  H  H73  1  0.18314203  0.48822791  0.59361894  1 0.097423
  H  H74  1  0.12387217  0.38943067  0.73674562  1 0.12264
  H  H75  1  0.06178223  0.67248978  0.87748969  1 0.108522
  H  H76  1  0.12584900  0.75970291  0.72995014  1 0.094019
  H  H77  1  0.01966048  0.32615559  0.95853794  1 0.136247
  H  H78  1  0.04477417  0.33090361  0.76708423  1 0.14948
  H  H79  1  0.08207533  0.32574229  0.93643015  1 0.155649
  H  H80  1  0.35242487  0.71425400  0.91900746  1 0.106751
  H  H81  1  0.30501226  0.77186392  0.01708013  1 0.131073
  H  H82  1  0.26039386  0.61331108  0.01889165  1 0.094544
  H  H83  1  0.31603877  0.59778357  0.11266926  1 0.086026
  H  H84  1  0.34574753  0.51441659  0.86571713  1 0.110669
  H  H85  1  0.29109391  0.54123627  0.76853311  1 0.129381
  H  H86  1  0.31676089  0.98864986  0.90653783  1 0.097791
  H  H87  1  0.37613744  0.88975527  0.76344510  1 0.121656
  H  H88  1  0.43800941  0.17241587  0.62305246  1 0.108331
  H  H89  1  0.37391885  0.25997556  0.77050097  1 0.095211
  H  H90  1  0.48038761  0.82599577  0.54138196  1 0.136445
  H  H91  1  0.45526111  0.83094331  0.73283219  1 0.149402
  H  H92  1  0.41797555  0.82588477  0.56345378  1 0.155228
  H  H93  1  0.14730937  0.21406231  0.58023700  1 0.106647
  H  H94  1  0.19478777  0.27126281  0.48213907  1 0.130904
  H  H95  1  0.23958020  0.11305737  0.48088985  1 0.094664
  H  H96  1  0.18402577  0.09729816  0.38650765  1 0.08608
  H  H97  1  0.15439693  0.01413383  0.63394322  1 0.11089
  H  H98  1  0.20902517  0.04079577  0.73080411  1 0.12953
  H  H99  1  0.81674888  0.48863072  0.90646587  1 0.097809
  H  H100  1  0.87607950  0.38975184  0.76339200  1 0.121967
  H  H101  1  0.93799790  0.67241883  0.62305884  1 0.108288
  H  H102  1  0.87390874  0.75997302  0.77048519  1 0.095072
  H  H103  1  0.98038379  0.32599547  0.54137722  1 0.136277
  H  H104  1  0.95525285  0.33094887  0.73283400  1 0.149433
  H  H105  1  0.91796969  0.32587461  0.56351336  1 0.155277
  H  H106  1  0.64732359  0.71416776  0.58029656  1 0.107108
  H  H107  1  0.69479859  0.77158308  0.48213204  1 0.131318
  H  H108  1  0.73954822  0.61311798  0.48096875  1 0.094422
  H  H109  1  0.68399304  0.59735955  0.38667092  1 0.086283
  H  H110  1  0.65425481  0.51455530  0.63426223  1 0.110911
  H  H111  1  0.70889487  0.54131703  0.73127551  1 0.129442
  C  C112  1  0.34462609  0.97419159  0.34239993  1 0.106571
  C  C113  1  0.37844678  0.02865678  0.26333527  1 -0.155303
  C  C114  1  0.41350354  0.97662206  0.18330856  1 0.053104
  C  C115  1  0.41177901  0.87053285  0.18414803  1 -0.15425
  C  C116  1  0.37671058  0.82240188  0.26555908  1 0.083021
  C  C117  1  0.45125579  0.03099568  0.10342992  1 0.271502
  C  C118  1  0.45150023  0.14385707  0.10957357  1 -0.465887
  C  C119  1  0.20928504  0.76422663  0.22591126  1 0.625623
  C  C120  1  0.18580107  0.78800942  0.06683174  1 -0.295903
  C  C121  1  0.20179342  0.88961261  0.00210341  1 -0.100335
  C  C122  1  0.19206241  0.97622011  0.11588036  1 -0.289668
  C  C123  1  0.21220279  0.07741822  0.06857480  1 0.629801
  C  C124  1  0.84444794  0.47395510  0.34264413  1 0.106638
  C  C125  1  0.87831714  0.52838443  0.26368132  1 -0.156208
  C  C126  1  0.91339556  0.47645142  0.18365227  1 0.054613
  C  C127  1  0.91163081  0.37037754  0.18458650  1 -0.154516
  C  C128  1  0.87653571  0.32217309  0.26583898  1 0.082344
  C  C129  1  0.95115411  0.53087626  0.10367914  1 0.270549
  C  C130  1  0.95145780  0.64376885  0.10964235  1 -0.4658
  C  C131  1  0.70910859  0.26393212  0.22473668  1 0.625688
  C  C132  1  0.68560777  0.28812629  0.06622035  1 -0.296393
  C  C133  1  0.70171523  0.38980968  0.00163677  1 -0.099891
  C  C134  1  0.69206578  0.47634285  0.11571641  1 -0.289162
  C  C135  1  0.71221921  0.57750780  0.06861286  1 0.628533
  C  C136  1  0.65552659  0.97382464  0.15741091  1 0.106916
  C  C137  1  0.62164590  0.02835624  0.23643924  1 -0.156214
  C  C138  1  0.58659836  0.97650382  0.31639777  1 0.054386
  C  C139  1  0.58842332  0.87044582  0.31529653  1 -0.154813
  C  C140  1  0.62352763  0.82211702  0.23400678  1 0.082883
  C  C141  1  0.54879150  0.03093443  0.39649730  1 0.270822
  C  C142  1  0.54846619  0.14382454  0.39052583  1 -0.465206
  C  C143  1  0.79090482  0.76393582  0.27526160  1 0.626417
  C  C144  1  0.81441620  0.78807891  0.43372958  1 -0.296409
  C  C145  1  0.79828731  0.88982730  0.49834202  1 -0.100228
  C  C146  1  0.80793871  0.97628755  0.38425534  1 -0.289871
  C  C147  1  0.78776576  0.07752507  0.43138835  1 0.629283
  C  C148  1  0.15552086  0.47382664  0.15741455  1 0.106624
  C  C149  1  0.12164097  0.52835092  0.23645351  1 -0.1568
  C  C150  1  0.08659537  0.47650034  0.31643069  1 0.057012
  C  C151  1  0.08841808  0.37044275  0.31532552  1 -0.155462
  C  C152  1  0.12352171  0.32211762  0.23402694  1 0.082676
  C  C153  1  0.04878594  0.53093533  0.39650198  1 0.270014
  C  C154  1  0.04846407  0.64382729  0.39052564  1 -0.465481
  C  C155  1  0.29091484  0.26406991  0.27527877  1 0.626397
  C  C156  1  0.31442826  0.28839758  0.43373086  1 -0.295622
  C  C157  1  0.29824493  0.39007905  0.49850760  1 -0.100063
  C  C158  1  0.30783319  0.47662135  0.38468441  1 -0.290368
  C  C159  1  0.28757482  0.57812735  0.43146219  1 0.628192
  C  C160  1  0.65555225  0.02604494  0.65735580  1 0.10659
  C  C161  1  0.62168302  0.97161541  0.73631886  1 -0.156205
  C  C162  1  0.58660449  0.02354818  0.81634811  1 0.054632
  C  C163  1  0.58836935  0.12962211  0.81541379  1 -0.154603
  C  C164  1  0.62346457  0.17782681  0.73416083  1 0.082376
  C  C165  1  0.54884599  0.96912386  0.89632101  1 0.270566
  C  C166  1  0.54854236  0.85623101  0.89035752  1 -0.465782
  C  C167  1  0.79089153  0.23606820  0.77526280  1 0.625701
  C  C168  1  0.81439229  0.21187374  0.93377948  1 -0.296373
  C  C169  1  0.79828492  0.11019015  0.99836325  1 -0.099871
  C  C170  1  0.80793437  0.02365682  0.88428363  1 -0.28924
  C  C171  1  0.78778101  0.92249179  0.93138745  1 0.628529
  C  C172  1  0.15537371  0.52580856  0.65759974  1 0.106534
  C  C173  1  0.12155308  0.47134318  0.73666396  1 -0.155271
  C  C174  1  0.08649657  0.52337820  0.81669069  1 0.053151
  C  C175  1  0.08822092  0.62946724  0.81585169  1 -0.154349
  C  C176  1  0.12328911  0.67759774  0.73444039  1 0.082959
  C  C177  1  0.04874431  0.46900374  0.89656947  1 0.271516
  C  C178  1  0.04849975  0.35614268  0.89042634  1 -0.465908
  C  C179  1  0.29071483  0.73577285  0.77408712  1 0.625674
  C  C180  1  0.31419719  0.71198851  0.93317270  1 -0.29592
  C  C181  1  0.29820596  0.61038820  0.99790189  1 -0.10028
  C  C182  1  0.30793712  0.52377908  0.88412172  1 -0.289717
  C  C183  1  0.28779628  0.42258193  0.93142097  1 0.629928
  C  C184  1  0.34447910  0.02617319  0.84258527  1 0.106672
  C  C185  1  0.37835899  0.97164868  0.76354603  1 -0.155929
  C  C186  1  0.41340471  0.02349921  0.68356869  1 0.054285
  C  C187  1  0.41158192  0.12955698  0.68467409  1 -0.154661
  C  C188  1  0.37647810  0.17788228  0.76597299  1 0.082762
  C  C189  1  0.45121414  0.96906481  0.60349762  1 0.270789
  C  C190  1  0.45153596  0.85617257  0.60947431  1 -0.465432
  C  C191  1  0.20908404  0.23593251  0.72472225  1 0.626244
  C  C192  1  0.18557080  0.21160373  0.56627347  1 -0.295549
  C  C193  1  0.20175514  0.10992010  0.50149671  1 -0.100094
  C  C194  1  0.19216651  0.02337951  0.61531549  1 -0.290341
  C  C195  1  0.21242534  0.92187235  0.56853651  1 0.628268
  C  C196  1  0.84447359  0.52617512  0.84258907  1 0.106871
  C  C197  1  0.87835427  0.47164369  0.76356086  1 -0.156125
  C  C198  1  0.91340175  0.52349634  0.68360250  1 0.054358
  C  C199  1  0.91157687  0.62955436  0.68470368  1 -0.154788
  C  C200  1  0.87647268  0.67788285  0.76599306  1 0.082976
  C  C201  1  0.95120859  0.46906524  0.60350285  1 0.270827
  C  C202  1  0.95153401  0.35617545  0.60947401  1 -0.465161
  C  C203  1  0.70909544  0.73606380  0.72473809  1 0.626437
  C  C204  1  0.68558402  0.71192089  0.56627041  1 -0.29644
  C  C205  1  0.70171276  0.61017268  0.50165799  1 -0.100178
  C  C206  1  0.69206121  0.52371274  0.61574471  1 -0.289947
  C  C207  1  0.71223449  0.42247580  0.56861072  1 0.629217
  N  N208  1  0.34380287  0.87294135  0.34536662  1 -0.232428
  N  N209  1  0.48223543  0.97426615  0.03503680  1 -0.217359
  N  N210  1  0.84357502  0.37267759  0.34554864  1 -0.230564
  N  N211  1  0.98213680  0.47415947  0.03528276  1 -0.216695
  N  N212  1  0.65645057  0.87255756  0.15436133  1 -0.229861
  N  N213  1  0.51784527  0.97421615  0.46475785  1 -0.216868
  N  N214  1  0.15644513  0.37255785  0.15438158  1 -0.229706
  N  N215  1  0.01783877  0.47423017  0.46476691  1 -0.216958
  N  N216  1  0.65642533  0.12732257  0.65445100  1 -0.230558
  N  N217  1  0.51786333  0.02584039  0.96471731  1 -0.216733
  N  N218  1  0.15619662  0.62705852  0.65463290  1 -0.232307
  N  N219  1  0.01776465  0.52573338  0.96496303  1 -0.217426
  N  N220  1  0.34355458  0.12744212  0.84561848  1 -0.229714
  N  N221  1  0.48216120  0.02576988  0.53523288  1 -0.216874
  N  N222  1  0.84354993  0.62744193  0.84563816  1 -0.229969
  N  N223  1  0.98215487  0.52578373  0.53524192  1 -0.216889
  O  O224  1  0.18467264  0.72071020  0.32908320  1 -0.534766
  O  O225  1  0.18695029  0.15519965  0.09279983  1 -0.53821
  O  O226  1  0.25190025  0.79174174  0.24416922  1 -0.528003
  O  O227  1  0.25323395  0.07789289  0.01208287  1 -0.532064
  O  O228  1  0.68464597  0.22017048  0.32817732  1 -0.535314
  O  O229  1  0.68695270  0.65530530  0.09273813  1 -0.537344
  O  O230  1  0.75176598  0.29126945  0.24319416  1 -0.52865
  O  O231  1  0.75326780  0.57798845  0.01220454  1 -0.531527
  O  O232  1  0.81537286  0.72013483  0.17172988  1 -0.535392
  O  O233  1  0.81302113  0.15520386  0.40732157  1 -0.538084
  O  O234  1  0.74821600  0.79130511  0.25689713  1 -0.528723
  O  O235  1  0.74672023  0.07813130  0.48782897  1 -0.531246
  O  O236  1  0.31536888  0.22016687  0.17183182  1 -0.535963
  O  O237  1  0.31293587  0.65555916  0.40719730  1 -0.537432
  O  O238  1  0.24821665  0.29135355  0.25695386  1 -0.528624
  O  O239  1  0.24648351  0.57858885  0.48729035  1 -0.529964
  O  O240  1  0.81535404  0.27982959  0.67182310  1 -0.535291
  O  O241  1  0.81304754  0.84469529  0.90726175  1 -0.537302
  O  O242  1  0.74823373  0.20873090  0.75680510  1 -0.528696
  O  O243  1  0.74673196  0.92201067  0.98779639  1 -0.531555
  O  O244  1  0.31532937  0.77928838  0.67092009  1 -0.534796
  O  O245  1  0.31304937  0.34479983  0.90719757  1 -0.538237
  O  O246  1  0.24809999  0.70825950  0.75582348  1 -0.528027
  O  O247  1  0.24676490  0.42210789  0.98790735  1 -0.532122
  O  O248  1  0.18463084  0.27983820  0.82816693  1 -0.535924
  O  O249  1  0.18706460  0.84444285  0.59280365  1 -0.537435
  O  O250  1  0.25178250  0.20864845  0.74304706  1 -0.528549
  O  O251  1  0.25351718  0.92141083  0.51270678  1 -0.530053
  O  O252  1  0.68462756  0.77986524  0.82827169  1 -0.535437
  O  O253  1  0.68697915  0.34479648  0.59267760  1 -0.538051
  O  O254  1  0.75178366  0.70869436  0.74310132  1 -0.52868
  O  O255  1  0.75327961  0.42186875  0.51217039  1 -0.53121
