# generated using pymatgen
data_Zr3H14(C3O2)8
_symmetry_space_group_name_H-M   'P 1'
_cell_length_a   20.86401597
_cell_length_b   20.86401886
_cell_length_c   20.86402969
_cell_angle_alpha   90.00000000
_cell_angle_beta   90.00000000
_cell_angle_gamma   89.99998716
_symmetry_Int_Tables_number   1
_chemical_formula_structural   Zr3H14(C3O2)8
_chemical_formula_sum   'Zr24 H112 C192 O128'
_cell_volume   9082.26282304
_cell_formula_units_Z   8
loop_
 _symmetry_equiv_pos_site_id
 _symmetry_equiv_pos_as_xyz
  1  'x, y, z'
loop_
 _atom_site_type_symbol
 _atom_site_label
 _atom_site_symmetry_multiplicity
 _atom_site_fract_x
 _atom_site_fract_y
 _atom_site_fract_z
 _atom_site_occupancy
 _atom_site_charge
  Zr  Zr0  1  0.00000010  0.11981205  -0.00000026  1 2.371604
  Zr  Zr1  1  0.11981216  -0.00000001  0.00000012  1 2.371668
  Zr  Zr2  1  0.88018779  -0.00000001  -0.00000038  1 2.37158
  Zr  Zr3  1  -0.00000022  0.00000012  0.11981193  1 2.371613
  Zr  Zr4  1  0.00000017  -0.00000016  0.88018791  1 2.371627
  Zr  Zr5  1  -0.00000000  0.88018789  0.00000003  1 2.371668
  Zr  Zr6  1  0.50000010  0.61981205  -0.00000026  1 2.371604
  Zr  Zr7  1  0.61981216  0.49999999  0.00000012  1 2.371668
  Zr  Zr8  1  0.38018779  0.49999999  -0.00000038  1 2.37158
  Zr  Zr9  1  0.49999978  0.50000012  0.11981193  1 2.371613
  Zr  Zr10  1  0.50000017  0.49999984  0.88018791  1 2.371627
  Zr  Zr11  1  0.50000000  0.38018789  0.00000003  1 2.371669
  Zr  Zr12  1  0.00000000  0.61981211  0.50000003  1 2.371667
  Zr  Zr13  1  0.11981221  0.50000001  0.49999962  1 2.37158
  Zr  Zr14  1  0.88018784  0.50000001  0.50000012  1 2.371668
  Zr  Zr15  1  0.00000022  0.49999988  0.61981193  1 2.371613
  Zr  Zr16  1  -0.00000017  0.50000016  0.38018791  1 2.371628
  Zr  Zr17  1  -0.00000010  0.38018795  0.49999974  1 2.371606
  Zr  Zr18  1  0.50000000  0.11981211  0.50000003  1 2.371667
  Zr  Zr19  1  0.61981221  0.00000001  0.49999962  1 2.37158
  Zr  Zr20  1  0.38018784  0.00000001  0.50000012  1 2.371668
  Zr  Zr21  1  0.50000022  -0.00000012  0.61981193  1 2.371613
  Zr  Zr22  1  0.49999983  0.00000016  0.38018791  1 2.371628
  Zr  Zr23  1  0.49999990  0.88018795  0.49999974  1 2.371606
  H  H24  1  0.09437192  0.09437244  0.09437194  1 0.423741
  H  H25  1  0.90562804  0.09437201  0.90562748  1 0.423738
  H  H26  1  0.90562761  0.90562808  0.09437184  1 0.423748
  H  H27  1  0.09437240  0.90562762  0.90562857  1 0.423749
  H  H28  1  0.59437192  0.59437244  0.09437194  1 0.423741
  H  H29  1  0.40562804  0.59437201  0.90562748  1 0.423738
  H  H30  1  0.40562761  0.40562808  0.09437184  1 0.423748
  H  H31  1  0.59437240  0.40562762  0.90562857  1 0.423749
  H  H32  1  0.09437239  0.59437192  0.59437184  1 0.423742
  H  H33  1  0.90562760  0.59437238  0.40562857  1 0.423743
  H  H34  1  0.90562808  0.40562756  0.59437194  1 0.423747
  H  H35  1  0.09437196  0.40562799  0.40562748  1 0.423744
  H  H36  1  0.59437239  0.09437192  0.59437184  1 0.423742
  H  H37  1  0.40562760  0.09437238  0.40562857  1 0.423743
  H  H38  1  0.40562808  0.90562756  0.59437194  1 0.423747
  H  H39  1  0.59437196  0.90562799  0.40562748  1 0.423744
  H  H40  1  0.27995161  0.13453871  0.99636867  1 0.113455
  H  H41  1  0.13453875  0.27995157  0.99636868  1 0.113451
  H  H42  1  0.22004844  0.36546134  0.99636866  1 0.113445
  H  H43  1  0.36546136  0.22004845  0.99636866  1 0.113449
  H  H44  1  0.27995156  0.63453866  0.49636866  1 0.113454
  H  H45  1  0.13453864  0.77995155  0.49636866  1 0.113448
  H  H46  1  0.22004839  0.86546129  0.49636867  1 0.113447
  H  H47  1  0.36546125  0.72004843  0.49636868  1 0.113451
  H  H48  1  0.86546136  0.72004845  0.99636866  1 0.113451
  H  H49  1  0.72004844  0.86546134  0.99636866  1 0.113447
  H  H50  1  0.63453875  0.77995157  0.99636868  1 0.113449
  H  H51  1  0.77995161  0.63453871  0.99636867  1 0.113453
  H  H52  1  0.86546125  0.22004843  0.49636868  1 0.113453
  H  H53  1  0.72004839  0.36546129  0.49636867  1 0.113448
  H  H54  1  0.63453864  0.27995155  0.49636866  1 0.113447
  H  H55  1  0.77995156  0.13453866  0.49636866  1 0.113452
  H  H56  1  0.86546124  0.27995158  0.00363079  1 0.113457
  H  H57  1  0.72004841  0.13453876  0.00363078  1 0.113458
  H  H58  1  0.63453854  0.22004861  0.00363167  1 0.113443
  H  H59  1  0.77995142  0.36546144  0.00363167  1 0.11344
  H  H60  1  0.86546146  0.77995139  0.50363167  1 0.113443
  H  H61  1  0.72004858  0.63453856  0.50363167  1 0.113449
  H  H62  1  0.63453876  0.72004842  0.50363079  1 0.113457
  H  H63  1  0.77995159  0.86546124  0.50363078  1 0.11345
  H  H64  1  0.13453876  0.22004842  0.50363079  1 0.113459
  H  H65  1  0.27995159  0.36546124  0.50363078  1 0.113451
  H  H66  1  0.36546146  0.27995139  0.50363167  1 0.113441
  H  H67  1  0.22004858  0.13453856  0.50363167  1 0.113447
  H  H68  1  0.13453854  0.72004861  0.00363167  1 0.113445
  H  H69  1  0.27995142  0.86546144  0.00363167  1 0.113442
  H  H70  1  0.36546124  0.77995158  0.00363079  1 0.113455
  H  H71  1  0.22004841  0.63453876  0.00363078  1 0.113457
  H  H72  1  0.99639938  0.27995159  0.13453888  1 0.113394
  H  H73  1  0.99634187  0.13453862  0.27995146  1 0.113385
  H  H74  1  0.99634188  0.22004859  0.36546134  1 0.113381
  H  H75  1  0.99639941  0.36546117  0.22004842  1 0.113387
  H  H76  1  0.49636153  0.36546141  0.72004850  1 0.113286
  H  H77  1  0.49638012  0.22004847  0.86546118  1 0.113392
  H  H78  1  0.49638009  0.13453872  0.77995142  1 0.113385
  H  H79  1  0.49636150  0.27995159  0.63453864  1 0.11329
  H  H80  1  0.99636153  0.86546141  0.72004850  1 0.113286
  H  H81  1  0.99638012  0.72004847  0.86546118  1 0.113392
  H  H82  1  0.99638009  0.63453872  0.77995142  1 0.113385
  H  H83  1  0.99636150  0.77995159  0.63453864  1 0.11329
  H  H84  1  0.49639938  0.77995159  0.13453888  1 0.113394
  H  H85  1  0.49634187  0.63453862  0.27995146  1 0.113385
  H  H86  1  0.49634188  0.72004859  0.36546134  1 0.113381
  H  H87  1  0.49639941  0.86546117  0.22004842  1 0.113387
  H  H88  1  0.00361991  0.86546128  0.27995142  1 0.113379
  H  H89  1  0.00363850  0.72004841  0.13453864  1 0.113294
  H  H90  1  0.00363847  0.63453859  0.22004850  1 0.113292
  H  H91  1  0.00361988  0.77995153  0.36546118  1 0.113388
  H  H92  1  0.50365812  0.77995141  0.86546134  1 0.11338
  H  H93  1  0.50360059  0.63453883  0.72004842  1 0.113396
  H  H94  1  0.50360062  0.72004841  0.63453888  1 0.113395
  H  H95  1  0.50365813  0.86546138  0.77995146  1 0.113376
  H  H96  1  0.50361991  0.36546128  0.27995142  1 0.113379
  H  H97  1  0.50363850  0.22004841  0.13453864  1 0.113294
  H  H98  1  0.50363847  0.13453859  0.22004850  1 0.113292
  H  H99  1  0.50361988  0.27995153  0.36546118  1 0.113388
  H  H100  1  0.00365812  0.27995141  0.86546134  1 0.11338
  H  H101  1  0.00360059  0.13453883  0.72004842  1 0.113396
  H  H102  1  0.00360062  0.22004841  0.63453888  1 0.113395
  H  H103  1  0.00365813  0.36546138  0.77995146  1 0.113376
  H  H104  1  0.13453859  0.99637270  0.27995152  1 0.113407
  H  H105  1  0.27995150  0.99636892  0.13453878  1 0.11346
  H  H106  1  0.36546126  0.99636888  0.22004854  1 0.113455
  H  H107  1  0.22004839  0.99637270  0.36546130  1 0.11341
  H  H108  1  0.36546147  0.49636100  0.72004840  1 0.113315
  H  H109  1  0.22004864  0.49637964  0.86546109  1 0.113427
  H  H110  1  0.13453889  0.49637968  0.77995138  1 0.11342
  H  H111  1  0.27995168  0.49636102  0.63453857  1 0.113314
  H  H112  1  0.86546147  0.99636100  0.72004840  1 0.113315
  H  H113  1  0.72004864  0.99637964  0.86546109  1 0.113427
  H  H114  1  0.63453889  0.99637968  0.77995138  1 0.11342
  H  H115  1  0.77995168  0.99636102  0.63453857  1 0.113314
  H  H116  1  0.63453859  0.49637270  0.27995152  1 0.113407
  H  H117  1  0.77995150  0.49636892  0.13453878  1 0.11346
  H  H118  1  0.86546126  0.49636888  0.22004854  1 0.113455
  H  H119  1  0.72004839  0.49637270  0.36546130  1 0.11341
  H  H120  1  0.13453874  0.00363112  0.72004854  1 0.113457
  H  H121  1  0.27995161  0.00362730  0.86546130  1 0.113412
  H  H122  1  0.36546141  0.00362730  0.77995152  1 0.113405
  H  H123  1  0.22004850  0.00363108  0.63453878  1 0.113458
  H  H124  1  0.36546111  0.50362032  0.27995138  1 0.113422
  H  H125  1  0.22004832  0.50363898  0.13453857  1 0.113315
  H  H126  1  0.13453853  0.50363900  0.22004840  1 0.113314
  H  H127  1  0.27995136  0.50362036  0.36546109  1 0.113425
  H  H128  1  0.86546111  0.00362032  0.27995138  1 0.113422
  H  H129  1  0.72004832  0.00363898  0.13453857  1 0.113315
  H  H130  1  0.63453853  0.00363900  0.22004840  1 0.113314
  H  H131  1  0.77995136  0.00362036  0.36546109  1 0.113425
  H  H132  1  0.63453874  0.50363112  0.72004854  1 0.113457
  H  H133  1  0.77995161  0.50362730  0.86546130  1 0.113412
  H  H134  1  0.86546141  0.50362730  0.77995152  1 0.113405
  H  H135  1  0.72004850  0.50363108  0.63453878  1 0.113458
  C  C136  1  0.84787334  0.15212672  0.00303359  1 0.639429
  C  C137  1  0.15212669  0.15212674  0.99696481  1 0.639492
  C  C138  1  0.99696554  0.15212671  0.15212653  1 0.639508
  C  C139  1  0.00303446  0.15212663  0.84787326  1 0.639504
  C  C140  1  0.15212656  0.84787345  0.00303584  1 0.639484
  C  C141  1  0.84787336  0.84787346  0.99696477  1 0.639518
  C  C142  1  0.15212649  0.99696705  0.15212662  1 0.639458
  C  C143  1  0.15212696  0.00303274  0.84787356  1 0.63957
  C  C144  1  0.84787363  0.99696548  0.84787291  1 0.639605
  C  C145  1  0.84787295  0.00303451  0.15212632  1 0.63961
  C  C146  1  0.00303295  0.84787348  0.15212650  1 0.639476
  C  C147  1  0.99696727  0.84787333  0.84787345  1 0.639503
  C  C148  1  0.34787334  0.65212672  0.00303359  1 0.639429
  C  C149  1  0.65212669  0.65212674  0.99696481  1 0.639492
  C  C150  1  0.49696554  0.65212671  0.15212653  1 0.639508
  C  C151  1  0.50303446  0.65212663  0.84787326  1 0.639504
  C  C152  1  0.65212656  0.34787345  0.00303584  1 0.639484
  C  C153  1  0.34787336  0.34787346  0.99696477  1 0.639518
  C  C154  1  0.65212649  0.49696705  0.15212662  1 0.639458
  C  C155  1  0.65212696  0.50303274  0.84787356  1 0.63957
  C  C156  1  0.34787363  0.49696548  0.84787291  1 0.639605
  C  C157  1  0.34787295  0.50303451  0.15212632  1 0.63961
  C  C158  1  0.50303295  0.34787348  0.15212650  1 0.639476
  C  C159  1  0.49696727  0.34787333  0.84787345  1 0.639503
  C  C160  1  0.84787344  0.65212655  0.50303584  1 0.639481
  C  C161  1  0.15212664  0.65212654  0.49696477  1 0.639515
  C  C162  1  0.99696705  0.65212652  0.65212650  1 0.639472
  C  C163  1  0.00303273  0.65212667  0.34787345  1 0.639499
  C  C164  1  0.15212666  0.34787328  0.50303359  1 0.639433
  C  C165  1  0.84787331  0.34787326  0.49696481  1 0.639495
  C  C166  1  0.15212705  0.49696549  0.65212632  1 0.63961
  C  C167  1  0.15212637  0.50303452  0.34787291  1 0.639604
  C  C168  1  0.84787304  0.49696726  0.34787356  1 0.63957
  C  C169  1  0.84787351  0.50303295  0.65212662  1 0.639457
  C  C170  1  0.00303446  0.34787329  0.65212653  1 0.639512
  C  C171  1  0.99696554  0.34787337  0.34787326  1 0.639507
  C  C172  1  0.34787344  0.15212655  0.50303584  1 0.639481
  C  C173  1  0.65212664  0.15212654  0.49696477  1 0.639515
  C  C174  1  0.49696705  0.15212652  0.65212650  1 0.639472
  C  C175  1  0.50303273  0.15212667  0.34787345  1 0.639499
  C  C176  1  0.65212666  0.84787328  0.50303359  1 0.639433
  C  C177  1  0.34787331  0.84787326  0.49696481  1 0.639495
  C  C178  1  0.65212705  0.99696549  0.65212632  1 0.63961
  C  C179  1  0.65212637  0.00303452  0.34787291  1 0.639604
  C  C180  1  0.34787304  0.99696726  0.34787356  1 0.63957
  C  C181  1  0.34787351  0.00303295  0.65212662  1 0.639457
  C  C182  1  0.50303446  0.84787329  0.65212653  1 0.639512
  C  C183  1  0.49696554  0.84787337  0.34787326  1 0.639507
  C  C184  1  0.26761742  0.18527401  0.99652351  1 -0.090181
  C  C185  1  0.20268578  0.20268576  0.99647110  1 -0.035602
  C  C186  1  0.18527403  0.26761740  0.99652352  1 -0.090182
  C  C187  1  0.23238259  0.31472601  0.99652352  1 -0.090174
  C  C188  1  0.29731426  0.29731425  0.99647110  1 -0.035602
  C  C189  1  0.31472602  0.23238258  0.99652351  1 -0.090167
  C  C190  1  0.26761741  0.68527399  0.49652352  1 -0.090182
  C  C191  1  0.20268574  0.70268575  0.49647110  1 -0.035598
  C  C192  1  0.18527398  0.76761742  0.49652351  1 -0.090178
  C  C193  1  0.23238258  0.81472599  0.49652351  1 -0.090174
  C  C194  1  0.29731422  0.79731424  0.49647110  1 -0.035606
  C  C195  1  0.31472597  0.73238260  0.49652352  1 -0.09017
  C  C196  1  0.81472602  0.73238258  0.99652351  1 -0.090181
  C  C197  1  0.79731426  0.79731425  0.99647110  1 -0.035599
  C  C198  1  0.73238259  0.81472601  0.99652352  1 -0.090181
  C  C199  1  0.68527403  0.76761740  0.99652352  1 -0.090175
  C  C200  1  0.70268578  0.70268576  0.99647110  1 -0.035605
  C  C201  1  0.76761742  0.68527401  0.99652351  1 -0.090167
  C  C202  1  0.81472597  0.23238260  0.49652352  1 -0.090185
  C  C203  1  0.79731422  0.29731424  0.49647110  1 -0.035604
  C  C204  1  0.73238258  0.31472599  0.49652351  1 -0.090181
  C  C205  1  0.68527398  0.26761742  0.49652351  1 -0.090171
  C  C206  1  0.70268574  0.20268575  0.49647110  1 -0.0356
  C  C207  1  0.76761741  0.18527399  0.49652352  1 -0.090167
  C  C208  1  0.81472592  0.26761743  0.00347595  1 -0.090195
  C  C209  1  0.79731424  0.20268578  0.00352827  1 -0.035566
  C  C210  1  0.73238256  0.18527411  0.00347595  1 -0.09019
  C  C211  1  0.68527392  0.23238274  0.00347640  1 -0.090162
  C  C212  1  0.70268560  0.29731443  0.00352929  1 -0.03562
  C  C213  1  0.76761728  0.31472608  0.00347640  1 -0.090158
  C  C214  1  0.81472608  0.76761726  0.50347640  1 -0.090174
  C  C215  1  0.79731440  0.70268557  0.50352929  1 -0.035616
  C  C216  1  0.73238272  0.68527392  0.50347640  1 -0.090166
  C  C217  1  0.68527408  0.73238257  0.50347595  1 -0.090184
  C  C218  1  0.70268576  0.79731422  0.50352827  1 -0.03557
  C  C219  1  0.76761744  0.81472589  0.50347595  1 -0.090183
  C  C220  1  0.18527408  0.23238257  0.50347595  1 -0.090195
  C  C221  1  0.20268576  0.29731422  0.50352827  1 -0.035568
  C  C222  1  0.26761744  0.31472589  0.50347595  1 -0.090193
  C  C223  1  0.31472608  0.26761726  0.50347640  1 -0.090163
  C  C224  1  0.29731440  0.20268557  0.50352929  1 -0.035618
  C  C225  1  0.23238272  0.18527392  0.50347640  1 -0.090155
  C  C226  1  0.18527392  0.73238274  0.00347640  1 -0.090173
  C  C227  1  0.20268560  0.79731443  0.00352929  1 -0.035618
  C  C228  1  0.26761728  0.81472608  0.00347640  1 -0.090169
  C  C229  1  0.31472592  0.76761743  0.00347595  1 -0.090184
  C  C230  1  0.29731424  0.70268578  0.00352827  1 -0.035568
  C  C231  1  0.23238256  0.68527411  0.00347595  1 -0.09018
  C  C232  1  0.99654123  0.26761748  0.18527405  1 -0.090078
  C  C233  1  0.99647286  0.20268579  0.20268581  1 -0.035762
  C  C234  1  0.99650968  0.18527402  0.26761741  1 -0.09002
  C  C235  1  0.99650968  0.23238258  0.31472595  1 -0.09001
  C  C236  1  0.99647286  0.29731419  0.29731417  1 -0.035775
  C  C237  1  0.99654124  0.31472598  0.23238252  1 -0.090069
  C  C238  1  0.49652097  0.31472604  0.73238260  1 -0.089974
  C  C239  1  0.49647324  0.29731432  0.79731428  1 -0.03574
  C  C240  1  0.49653101  0.23238261  0.81472593  1 -0.090049
  C  C241  1  0.49653101  0.18527397  0.76761729  1 -0.090047
  C  C242  1  0.49647320  0.20268565  0.70268559  1 -0.035736
  C  C243  1  0.49652097  0.26761739  0.68527396  1 -0.089967
  C  C244  1  0.99652097  0.81472604  0.73238260  1 -0.089974
  C  C245  1  0.99647324  0.79731432  0.79731428  1 -0.03574
  C  C246  1  0.99653101  0.73238261  0.81472593  1 -0.090049
  C  C247  1  0.99653101  0.68527397  0.76761729  1 -0.090047
  C  C248  1  0.99647320  0.70268565  0.70268559  1 -0.035736
  C  C249  1  0.99652097  0.76761739  0.68527396  1 -0.089967
  C  C250  1  0.49654123  0.76761748  0.18527405  1 -0.090078
  C  C251  1  0.49647286  0.70268579  0.20268581  1 -0.035762
  C  C252  1  0.49650968  0.68527402  0.26761741  1 -0.09002
  C  C253  1  0.49650968  0.73238258  0.31472595  1 -0.09001
  C  C254  1  0.49647286  0.79731419  0.29731417  1 -0.035775
  C  C255  1  0.49654124  0.81472598  0.23238252  1 -0.090069
  C  C256  1  0.00346899  0.81472603  0.26761729  1 -0.090062
  C  C257  1  0.00352680  0.79731435  0.20268559  1 -0.035735
  C  C258  1  0.00347903  0.73238261  0.18527396  1 -0.089977
  C  C259  1  0.00347903  0.68527396  0.23238260  1 -0.08996
  C  C260  1  0.00352676  0.70268568  0.29731428  1 -0.03574
  C  C261  1  0.00346899  0.76761739  0.31472593  1 -0.090039
  C  C262  1  0.50349032  0.76761742  0.81472595  1 -0.090022
  C  C263  1  0.50352714  0.70268581  0.79731417  1 -0.035771
  C  C264  1  0.50345876  0.68527402  0.73238252  1 -0.090076
  C  C265  1  0.50345877  0.73238252  0.68527405  1 -0.090066
  C  C266  1  0.50352714  0.79731421  0.70268581  1 -0.035766
  C  C267  1  0.50349032  0.81472598  0.76761741  1 -0.090012
  C  C268  1  0.50346899  0.31472603  0.26761729  1 -0.090062
  C  C269  1  0.50352680  0.29731435  0.20268559  1 -0.035735
  C  C270  1  0.50347903  0.23238261  0.18527396  1 -0.089977
  C  C271  1  0.50347903  0.18527396  0.23238260  1 -0.08996
  C  C272  1  0.50352676  0.20268568  0.29731428  1 -0.03574
  C  C273  1  0.50346899  0.26761739  0.31472593  1 -0.090039
  C  C274  1  0.00349032  0.26761742  0.81472595  1 -0.090022
  C  C275  1  0.00352714  0.20268581  0.79731417  1 -0.035771
  C  C276  1  0.00345876  0.18527402  0.73238252  1 -0.090076
  C  C277  1  0.00345877  0.23238252  0.68527405  1 -0.090066
  C  C278  1  0.00352714  0.29731421  0.70268581  1 -0.035766
  C  C279  1  0.00349032  0.31472598  0.76761741  1 -0.090012
  C  C280  1  0.18527392  0.99652716  0.26761738  1 -0.090104
  C  C281  1  0.20268558  0.99647319  0.20268571  1 -0.035643
  C  C282  1  0.26761730  0.99652475  0.18527408  1 -0.090205
  C  C283  1  0.31472596  0.99652473  0.23238273  1 -0.090174
  C  C284  1  0.29731423  0.99647324  0.29731438  1 -0.035668
  C  C285  1  0.23238256  0.99652717  0.31472600  1 -0.090088
  C  C286  1  0.31472615  0.49651987  0.73238244  1 -0.089973
  C  C287  1  0.29731442  0.49647238  0.79731404  1 -0.035786
  C  C288  1  0.23238278  0.49652993  0.81472581  1 -0.090097
  C  C289  1  0.18527419  0.49652993  0.76761723  1 -0.090057
  C  C290  1  0.20268598  0.49647239  0.70268559  1 -0.035794
  C  C291  1  0.26761760  0.49651987  0.68527388  1 -0.089951
  C  C292  1  0.81472615  0.99651987  0.73238244  1 -0.089973
  C  C293  1  0.79731442  0.99647238  0.79731404  1 -0.035786
  C  C294  1  0.73238278  0.99652993  0.81472581  1 -0.090097
  C  C295  1  0.68527419  0.99652993  0.76761723  1 -0.090057
  C  C296  1  0.70268598  0.99647239  0.70268559  1 -0.035794
  C  C297  1  0.76761760  0.99651987  0.68527388  1 -0.089951
  C  C298  1  0.68527392  0.49652716  0.26761738  1 -0.090104
  C  C299  1  0.70268558  0.49647319  0.20268571  1 -0.035643
  C  C300  1  0.76761730  0.49652475  0.18527408  1 -0.090205
  C  C301  1  0.81472596  0.49652473  0.23238273  1 -0.090174
  C  C302  1  0.79731423  0.49647324  0.29731438  1 -0.035668
  C  C303  1  0.73238256  0.49652717  0.31472600  1 -0.090087
  C  C304  1  0.18527404  0.00347527  0.73238273  1 -0.090185
  C  C305  1  0.20268577  0.00352676  0.79731438  1 -0.035666
  C  C306  1  0.26761744  0.00347283  0.81472600  1 -0.090098
  C  C307  1  0.31472608  0.00347284  0.76761738  1 -0.090093
  C  C308  1  0.29731442  0.00352681  0.70268571  1 -0.035645
  C  C309  1  0.23238270  0.00347525  0.68527408  1 -0.090194
  C  C310  1  0.31472581  0.50347007  0.26761723  1 -0.090067
  C  C311  1  0.29731402  0.50352761  0.20268559  1 -0.035792
  C  C312  1  0.23238240  0.50348013  0.18527388  1 -0.089961
  C  C313  1  0.18527385  0.50348013  0.23238244  1 -0.089962
  C  C314  1  0.20268558  0.50352762  0.29731404  1 -0.035789
  C  C315  1  0.26761722  0.50347007  0.31472581  1 -0.090087
  C  C316  1  0.81472581  0.00347007  0.26761723  1 -0.090067
  C  C317  1  0.79731402  0.00352761  0.20268559  1 -0.035792
  C  C318  1  0.73238240  0.00348013  0.18527388  1 -0.089961
  C  C319  1  0.68527385  0.00348013  0.23238244  1 -0.089962
  C  C320  1  0.70268558  0.00352762  0.29731404  1 -0.035789
  C  C321  1  0.76761722  0.00347007  0.31472581  1 -0.090087
  C  C322  1  0.68527404  0.50347527  0.73238273  1 -0.090185
  C  C323  1  0.70268577  0.50352676  0.79731438  1 -0.035666
  C  C324  1  0.76761744  0.50347283  0.81472600  1 -0.090098
  C  C325  1  0.81472608  0.50347284  0.76761738  1 -0.090093
  C  C326  1  0.79731442  0.50352681  0.70268571  1 -0.035645
  C  C327  1  0.73238270  0.50347525  0.68527408  1 -0.090194
  O  O328  1  0.82911637  0.09380737  0.00240776  1 -0.619182
  O  O329  1  0.17088340  0.09380726  0.99759033  1 -0.619232
  O  O330  1  0.99759140  0.17088360  0.09380711  1 -0.619216
  O  O331  1  0.00240979  0.17088335  0.90619273  1 -0.619205
  O  O332  1  0.00240861  0.09380714  0.82911652  1 -0.619219
  O  O333  1  0.99759017  0.09380716  0.17088316  1 -0.619207
  O  O334  1  0.09380727  0.17088367  0.99759106  1 -0.619228
  O  O335  1  0.90619270  0.17088353  0.00240789  1 -0.619195
  O  O336  1  0.04991593  0.04991565  0.95008422  1 -1.147473
  O  O337  1  0.95008402  0.04991597  0.04991535  1 -1.147449
  O  O338  1  0.06752889  0.06752924  0.06752872  1 -1.069705
  O  O339  1  0.93247114  0.06752894  0.93247077  1 -1.069689
  O  O340  1  0.17088328  0.90619295  0.00241009  1 -0.619231
  O  O341  1  0.82911631  0.90619289  0.99759096  1 -0.61924
  O  O342  1  0.09380699  0.99759175  0.17088331  1 -0.619182
  O  O343  1  0.09380752  0.00240806  0.82911702  1 -0.61926
  O  O344  1  0.90619310  0.99759040  0.82911635  1 -0.619266
  O  O345  1  0.90619249  0.00240862  0.17088304  1 -0.61926
  O  O346  1  0.00240784  0.82911662  0.09380718  1 -0.619193
  O  O347  1  0.99759294  0.82911632  0.90619277  1 -0.619211
  O  O348  1  0.00240790  0.90619287  0.17088337  1 -0.619219
  O  O349  1  0.99759168  0.90619274  0.82911676  1 -0.619215
  O  O350  1  0.17088348  0.99759234  0.09380734  1 -0.619221
  O  O351  1  0.82911625  0.00240967  0.09380690  1 -0.619249
  O  O352  1  0.82911689  0.99759134  0.90619237  1 -0.619249
  O  O353  1  0.17088383  0.00240727  0.90619286  1 -0.619219
  O  O354  1  0.09380710  0.82911659  0.00240982  1 -0.619227
  O  O355  1  0.90619290  0.82911666  0.99759030  1 -0.619243
  O  O356  1  0.95008435  0.95008418  0.95008409  1 -1.147462
  O  O357  1  0.04991575  0.95008427  0.04991607  1 -1.147468
  O  O358  1  0.93247066  0.93247119  0.06752866  1 -1.069701
  O  O359  1  0.06752921  0.93247093  0.93247143  1 -1.069716
  O  O360  1  0.32911637  0.59380737  0.00240776  1 -0.619182
  O  O361  1  0.67088340  0.59380726  0.99759033  1 -0.619232
  O  O362  1  0.49759140  0.67088360  0.09380711  1 -0.619216
  O  O363  1  0.50240979  0.67088335  0.90619273  1 -0.619205
  O  O364  1  0.50240861  0.59380714  0.82911652  1 -0.619219
  O  O365  1  0.49759017  0.59380716  0.17088316  1 -0.619207
  O  O366  1  0.59380727  0.67088367  0.99759106  1 -0.619228
  O  O367  1  0.40619270  0.67088353  0.00240789  1 -0.619195
  O  O368  1  0.54991593  0.54991565  0.95008422  1 -1.147473
  O  O369  1  0.45008402  0.54991597  0.04991535  1 -1.147449
  O  O370  1  0.56752889  0.56752924  0.06752872  1 -1.069705
  O  O371  1  0.43247114  0.56752894  0.93247077  1 -1.069689
  O  O372  1  0.67088328  0.40619295  0.00241009  1 -0.619231
  O  O373  1  0.32911631  0.40619289  0.99759096  1 -0.61924
  O  O374  1  0.59380699  0.49759175  0.17088331  1 -0.619182
  O  O375  1  0.59380752  0.50240806  0.82911702  1 -0.61926
  O  O376  1  0.40619310  0.49759040  0.82911635  1 -0.619266
  O  O377  1  0.40619249  0.50240862  0.17088304  1 -0.61926
  O  O378  1  0.50240784  0.32911662  0.09380718  1 -0.619193
  O  O379  1  0.49759294  0.32911632  0.90619277  1 -0.619211
  O  O380  1  0.50240790  0.40619287  0.17088337  1 -0.619219
  O  O381  1  0.49759168  0.40619274  0.82911676  1 -0.619215
  O  O382  1  0.67088348  0.49759234  0.09380734  1 -0.619221
  O  O383  1  0.32911625  0.50240967  0.09380690  1 -0.619249
  O  O384  1  0.32911689  0.49759134  0.90619237  1 -0.619249
  O  O385  1  0.67088383  0.50240727  0.90619286  1 -0.619219
  O  O386  1  0.59380710  0.32911659  0.00240982  1 -0.619227
  O  O387  1  0.40619290  0.32911666  0.99759030  1 -0.619243
  O  O388  1  0.45008435  0.45008418  0.95008409  1 -1.147462
  O  O389  1  0.54991575  0.45008427  0.04991607  1 -1.147468
  O  O390  1  0.43247066  0.43247119  0.06752866  1 -1.069701
  O  O391  1  0.56752921  0.43247093  0.93247143  1 -1.069716
  O  O392  1  0.82911672  0.59380705  0.50241009  1 -0.619223
  O  O393  1  0.17088369  0.59380711  0.49759096  1 -0.619231
  O  O394  1  0.99759216  0.67088338  0.59380718  1 -0.619199
  O  O395  1  0.00240706  0.67088368  0.40619277  1 -0.619217
  O  O396  1  0.00240832  0.59380726  0.32911676  1 -0.619206
  O  O397  1  0.99759210  0.59380713  0.67088337  1 -0.61921
  O  O398  1  0.09380710  0.67088334  0.49759030  1 -0.619249
  O  O399  1  0.90619290  0.67088341  0.50240982  1 -0.619232
  O  O400  1  0.04991565  0.54991582  0.45008409  1 -1.147465
  O  O401  1  0.95008425  0.54991573  0.54991607  1 -1.147471
  O  O402  1  0.06752934  0.56752881  0.56752866  1 -1.069699
  O  O403  1  0.93247079  0.56752907  0.43247143  1 -1.069714
  O  O404  1  0.17088363  0.40619263  0.50240776  1 -0.619191
  O  O405  1  0.82911660  0.40619274  0.49759033  1 -0.619241
  O  O406  1  0.09380751  0.49759138  0.67088304  1 -0.61926
  O  O407  1  0.09380690  0.50240960  0.32911635  1 -0.619267
  O  O408  1  0.90619248  0.49759194  0.32911702  1 -0.61926
  O  O409  1  0.90619301  0.50240825  0.67088331  1 -0.619182
  O  O410  1  0.00240860  0.32911640  0.59380711  1 -0.619211
  O  O411  1  0.99759021  0.32911665  0.40619273  1 -0.619199
  O  O412  1  0.00240983  0.40619284  0.67088316  1 -0.619216
  O  O413  1  0.99759139  0.40619286  0.32911652  1 -0.619228
  O  O414  1  0.17088375  0.49759033  0.59380690  1 -0.619249
  O  O415  1  0.82911652  0.50240766  0.59380734  1 -0.619222
  O  O416  1  0.82911617  0.49759273  0.40619286  1 -0.619219
  O  O417  1  0.17088311  0.50240866  0.40619237  1 -0.619249
  O  O418  1  0.09380730  0.32911647  0.50240789  1 -0.61919
  O  O419  1  0.90619273  0.32911633  0.49759106  1 -0.619222
  O  O420  1  0.95008407  0.45008435  0.45008422  1 -1.147471
  O  O421  1  0.04991598  0.45008403  0.54991535  1 -1.147447
  O  O422  1  0.93247111  0.43247076  0.56752872  1 -1.069707
  O  O423  1  0.06752886  0.43247106  0.43247077  1 -1.069691
  O  O424  1  0.32911672  0.09380705  0.50241009  1 -0.619223
  O  O425  1  0.67088369  0.09380711  0.49759096  1 -0.619231
  O  O426  1  0.49759216  0.17088338  0.59380718  1 -0.619199
  O  O427  1  0.50240706  0.17088368  0.40619277  1 -0.619217
  O  O428  1  0.50240832  0.09380726  0.32911676  1 -0.619206
  O  O429  1  0.49759210  0.09380713  0.67088337  1 -0.61921
  O  O430  1  0.59380710  0.17088334  0.49759030  1 -0.619248
  O  O431  1  0.40619290  0.17088341  0.50240982  1 -0.619232
  O  O432  1  0.54991565  0.04991582  0.45008409  1 -1.147465
  O  O433  1  0.45008425  0.04991573  0.54991607  1 -1.147471
  O  O434  1  0.56752934  0.06752881  0.56752866  1 -1.069699
  O  O435  1  0.43247079  0.06752907  0.43247143  1 -1.069714
  O  O436  1  0.67088363  0.90619263  0.50240776  1 -0.619191
  O  O437  1  0.32911660  0.90619274  0.49759033  1 -0.619241
  O  O438  1  0.59380751  0.99759138  0.67088304  1 -0.61926
  O  O439  1  0.59380690  0.00240960  0.32911635  1 -0.619267
  O  O440  1  0.40619248  0.99759194  0.32911702  1 -0.61926
  O  O441  1  0.40619301  0.00240825  0.67088331  1 -0.619182
  O  O442  1  0.50240860  0.82911640  0.59380711  1 -0.619211
  O  O443  1  0.49759021  0.82911665  0.40619273  1 -0.619199
  O  O444  1  0.50240983  0.90619284  0.67088316  1 -0.619216
  O  O445  1  0.49759139  0.90619286  0.32911652  1 -0.619228
  O  O446  1  0.67088375  0.99759033  0.59380690  1 -0.619249
  O  O447  1  0.32911652  0.00240766  0.59380734  1 -0.619222
  O  O448  1  0.32911617  0.99759273  0.40619286  1 -0.619219
  O  O449  1  0.67088311  0.00240866  0.40619237  1 -0.619249
  O  O450  1  0.59380730  0.82911647  0.50240789  1 -0.61919
  O  O451  1  0.40619273  0.82911633  0.49759106  1 -0.619223
  O  O452  1  0.45008407  0.95008435  0.45008422  1 -1.147471
  O  O453  1  0.54991598  0.95008403  0.54991535  1 -1.147447
  O  O454  1  0.43247111  0.93247076  0.56752872  1 -1.069707
  O  O455  1  0.56752886  0.93247106  0.43247077  1 -1.069691
