# generated using pymatgen
data_CuH10(C9O2)2
_symmetry_space_group_name_H-M   'P 1'
_cell_length_a   23.42641530
_cell_length_b   23.42637182
_cell_length_c   23.42636953
_cell_angle_alpha   109.47082375
_cell_angle_beta   109.47085542
_cell_angle_gamma   109.47190337
_symmetry_Int_Tables_number   1
_chemical_formula_structural   CuH10(C9O2)2
_chemical_formula_sum   'Cu12 H120 C216 O48'
_cell_volume   9896.79089393
_cell_formula_units_Z   12
loop_
 _symmetry_equiv_pos_site_id
 _symmetry_equiv_pos_as_xyz
  1  'x, y, z'
loop_
 _atom_site_type_symbol
 _atom_site_label
 _atom_site_symmetry_multiplicity
 _atom_site_fract_x
 _atom_site_fract_y
 _atom_site_fract_z
 _atom_site_occupancy
 _atom_site_charge
  Cu  Cu0  1  0.14612550  0.64612524  0.50000030  1 0.833031
  Cu  Cu1  1  0.64612790  0.50000027  0.14612869  1 0.833231
  Cu  Cu2  1  0.50000169  0.85386901  0.35386751  1 0.833203
  Cu  Cu3  1  0.26366202  0.49999961  0.76366285  1 0.840481
  Cu  Cu4  1  0.50000096  0.23633820  0.73633771  1 0.840408
  Cu  Cu5  1  0.50000211  0.14613550  0.64613364  1 0.833147
  Cu  Cu6  1  0.85386995  0.35387032  0.49999963  1 0.832966
  Cu  Cu7  1  0.50000117  0.76365790  0.26365720  1 0.840179
  Cu  Cu8  1  0.73633381  0.49999942  0.23633487  1 0.840366
  Cu  Cu9  1  0.23634247  0.73634275  0.49999990  1 0.840201
  Cu  Cu10  1  0.76365712  0.26365722  0.50000005  1 0.840321
  Cu  Cu11  1  0.35387426  0.49999965  0.85387520  1 0.83301
  H  H12  1  0.34525058  0.71060103  0.81948134  1 0.116688
  H  H13  1  0.63563330  0.59057800  0.50773710  1 0.103103
  H  H14  1  0.02798608  0.58329174  0.84851878  1 0.105977
  H  H15  1  0.36436792  0.40942130  0.49226217  1 0.103054
  H  H16  1  0.27749448  0.78696010  0.26207262  1 0.11514
  H  H17  1  0.72250532  0.98457943  0.50946556  1 0.115115
  H  H18  1  0.41818471  0.97392807  0.83593848  1 0.097956
  H  H19  1  0.47422951  0.36535265  0.65474901  1 0.116727
  H  H20  1  0.34525048  0.52576962  0.63464960  1 0.116716
  H  H21  1  0.17946697  0.44469391  0.02798440  1 0.10596
  H  H22  1  0.59057818  0.95494438  0.08284175  1 0.103096
  H  H23  1  0.18051792  0.65474662  0.28939132  1 0.116761
  H  H24  1  0.91715920  0.40942156  0.04505350  1 0.103062
  H  H25  1  0.52577099  0.18052042  0.89112422  1 0.116686
  H  H26  1  0.02607878  0.44425826  0.86200872  1 0.09788
  H  H27  1  0.50773832  0.63563279  0.59057851  1 0.103124
  H  H28  1  0.52488777  0.01542094  0.73792830  1 0.115133
  H  H29  1  0.97391942  0.55574101  0.13798993  1 0.097867
  H  H30  1  0.17946654  0.15148288  0.73477321  1 0.105945
  H  H31  1  0.49226335  0.36436679  0.40942152  1 0.103108
  H  H32  1  0.49226356  0.08284182  0.12789736  1 0.103094
  H  H33  1  0.16406656  0.13799109  0.58224865  1 0.097957
  H  H34  1  0.58224926  0.16407013  0.13799115  1 0.097915
  H  H35  1  0.02607839  0.16407015  0.58182045  1 0.097963
  H  H36  1  0.78696064  0.50946756  0.52488601  1 0.115113
  H  H37  1  0.72250734  0.21304041  0.73792689  1 0.115083
  H  H38  1  0.36535518  0.89112613  0.71060873  1 0.11673
  H  H39  1  0.47511418  0.98457937  0.26207447  1 0.115115
  H  H40  1  0.49053381  0.47511413  0.21303785  1 0.11504
  H  H41  1  0.15148298  0.73477246  0.17946582  1 0.105937
  H  H42  1  0.95494536  0.36436670  0.87210325  1 0.103097
  H  H43  1  0.26522854  0.82053591  0.84852538  1 0.105975
  H  H44  1  0.36436790  0.87210548  0.95494710  1 0.103071
  H  H45  1  0.41818488  0.58224663  0.44425654  1 0.097965
  H  H46  1  0.41670979  0.44469410  0.26522678  1 0.105965
  H  H47  1  0.65475030  0.47423016  0.36535047  1 0.116714
  H  H48  1  0.52488742  0.78696014  0.50946540  1 0.115105
  H  H49  1  0.44469374  0.26522789  0.41670832  1 0.105989
  H  H50  1  0.40942258  0.04505629  0.91716140  1 0.103072
  H  H51  1  0.08284084  0.59057781  0.95494477  1 0.103069
  H  H52  1  0.04505348  0.91715928  0.40942118  1 0.103073
  H  H53  1  0.55574246  0.58181812  0.41775060  1 0.097982
  H  H54  1  0.55530682  0.73477231  0.58328954  1 0.105969
  H  H55  1  0.41775164  0.83593068  0.86201083  1 0.097893
  H  H56  1  0.15148075  0.97201588  0.41670882  1 0.105993
  H  H57  1  0.71060290  0.81947909  0.34524978  1 0.116728
  H  H58  1  0.63464659  0.34524994  0.52577037  1 0.11671
  H  H59  1  0.65475044  0.28939999  0.18052070  1 0.116685
  H  H60  1  0.12789518  0.49226152  0.08283900  1 0.10305
  H  H61  1  0.58329095  0.84851685  0.02798569  1 0.105938
  H  H62  1  0.01541630  0.73792814  0.52488662  1 0.115123
  H  H63  1  0.73477293  0.58329188  0.55530597  1 0.105969
  H  H64  1  0.84851708  0.02798412  0.58328976  1 0.105984
  H  H65  1  0.97391911  0.83592966  0.41817843  1 0.097902
  H  H66  1  0.50946661  0.52488625  0.78696296  1 0.115117
  H  H67  1  0.58329084  0.55530586  0.73477425  1 0.105948
  H  H68  1  0.01541674  0.49053016  0.27748839  1 0.115097
  H  H69  1  0.26207578  0.47511418  0.98458041  1 0.115121
  H  H70  1  0.21304184  0.73792845  0.72251243  1 0.115091
  H  H71  1  0.98458149  0.50946730  0.72250666  1 0.115092
  H  H72  1  0.28939573  0.18052027  0.65474915  1 0.116735
  H  H73  1  0.83593226  0.86200900  0.41775111  1 0.097882
  H  H74  1  0.83593339  0.41818155  0.97392378  1 0.097924
  H  H75  1  0.73792368  0.52488629  0.01541904  1 0.115103
  H  H76  1  0.40942263  0.49226195  0.36436620  1 0.103037
  H  H77  1  0.73792312  0.72250476  0.21303754  1 0.115096
  H  H78  1  0.86200833  0.02607545  0.44425770  1 0.097928
  H  H79  1  0.28939702  0.63464642  0.10887540  1 0.116721
  H  H80  1  0.36535529  0.65474694  0.47422905  1 0.116753
  H  H81  1  0.95494457  0.08284206  0.59057846  1 0.103086
  H  H82  1  0.41670997  0.15148333  0.97201643  1 0.105956
  H  H83  1  0.71060418  0.36535298  0.89112376  1 0.116698
  H  H84  1  0.21304209  0.49052991  0.47511347  1 0.115103
  H  H85  1  0.63464646  0.10887603  0.28939699  1 0.116711
  H  H86  1  0.44469429  0.02798417  0.17946686  1 0.105984
  H  H87  1  0.26522876  0.41670359  0.44469265  1 0.105986
  H  H88  1  0.50946652  0.72250376  0.98458105  1 0.115124
  H  H89  1  0.55530737  0.97201608  0.82053563  1 0.10603
  H  H90  1  0.97201098  0.41670382  0.15147531  1 0.105992
  H  H91  1  0.12789429  0.04505596  0.63563358  1 0.103075
  H  H92  1  0.86200886  0.41775106  0.83593312  1 0.097933
  H  H93  1  0.18051739  0.89112642  0.52577127  1 0.116755
  H  H94  1  0.58224904  0.44425842  0.41817917  1 0.09791
  H  H95  1  0.10887948  0.47423017  0.81947956  1 0.116689
  H  H96  1  0.41775145  0.55574110  0.58182096  1 0.097908
  H  H97  1  0.89111891  0.71060013  0.36534992  1 0.11669
  H  H98  1  0.47422953  0.81947909  0.10887671  1 0.116714
  H  H99  1  0.98458114  0.26207464  0.47511430  1 0.11504
  H  H100  1  0.58181814  0.41775071  0.55574217  1 0.097917
  H  H101  1  0.02798565  0.17946704  0.44469433  1 0.105999
  H  H102  1  0.16406768  0.58181824  0.02607587  1 0.09794
  H  H103  1  0.89111927  0.52576935  0.18051928  1 0.116691
  H  H104  1  0.13798935  0.97392804  0.55574344  1 0.097989
  H  H105  1  0.84851935  0.26522791  0.82053404  1 0.105977
  H  H106  1  0.13798984  0.58224633  0.16406150  1 0.097977
  H  H107  1  0.91715845  0.87210539  0.50773735  1 0.103056
  H  H108  1  0.59057826  0.50773728  0.63563369  1 0.103121
  H  H109  1  0.78696029  0.26207441  0.27749317  1 0.115061
  H  H110  1  0.08284008  0.12789566  0.49226269  1 0.10309
  H  H111  1  0.58181790  0.02607563  0.16406764  1 0.097913
  H  H112  1  0.47511373  0.21304023  0.49053336  1 0.115092
  H  H113  1  0.44425776  0.41818139  0.58224803  1 0.097914
  H  H114  1  0.04505429  0.63563293  0.12789485  1 0.10308
  H  H115  1  0.27749252  0.01542090  0.49053303  1 0.115117
  H  H116  1  0.82053238  0.55530608  0.97201511  1 0.105956
  H  H117  1  0.50773847  0.91715975  0.87210636  1 0.103112
  H  H118  1  0.52577086  0.63464652  0.34524910  1 0.116729
  H  H119  1  0.55574259  0.13799129  0.97392476  1 0.097955
  H  H120  1  0.81947927  0.10887583  0.47422949  1 0.11672
  H  H121  1  0.87210335  0.95494463  0.36436643  1 0.103122
  H  H122  1  0.97201056  0.82053544  0.55530718  1 0.105984
  H  H123  1  0.49053376  0.27749606  0.01542038  1 0.115094
  H  H124  1  0.73477262  0.17946668  0.15148118  1 0.105993
  H  H125  1  0.44425775  0.86200897  0.02607673  1 0.097935
  H  H126  1  0.10887901  0.28939999  0.63464922  1 0.116671
  H  H127  1  0.82053193  0.84851757  0.26522645  1 0.105961
  H  H128  1  0.63563327  0.12789585  0.04505572  1 0.103101
  H  H129  1  0.87210424  0.50773768  0.91715940  1 0.103076
  H  H130  1  0.81947974  0.34525023  0.71060380  1 0.116716
  H  H131  1  0.26207509  0.27749547  0.78696173  1 0.115082
  C  C132  1  0.41321270  0.45973228  0.38794657  1 -0.174318
  C  C133  1  0.78969817  0.53140976  0.04155628  1 -0.07704
  C  C134  1  0.87623165  0.53258928  0.13502644  1 -0.082316
  C  C135  1  0.55017871  0.62742730  0.43890079  1 -0.139788
  C  C136  1  0.42265477  0.70886240  0.89957383  1 -0.040226
  C  C137  1  0.90366994  0.85168621  0.34549953  1 0.078146
  C  C138  1  0.38794924  0.92821596  0.97473978  1 -0.174274
  C  C139  1  0.02526283  0.61205193  0.07178484  1 -0.174323
  C  C140  1  0.39756320  0.74120674  0.86497439  1 -0.082248
  C  C141  1  0.25436526  0.62163177  0.49272473  1 0.580119
  C  C142  1  0.34550374  0.49381053  0.44182763  1 0.078219
  C  C143  1  0.74563707  0.23836186  0.36727369  1 0.579079
  C  C144  1  0.80928811  0.52308174  0.10042762  1 -0.040266
  C  C145  1  0.13502450  0.60243393  0.25878366  1 -0.082335
  C  C146  1  0.18122904  0.01756507  0.46903177  1 -0.136876
  C  C147  1  0.42265485  0.52308195  0.71379294  1 -0.040237
  C  C148  1  0.54026732  0.61205177  0.58678903  1 -0.174453
  C  C149  1  0.04713052  0.42787743  0.97448676  1 0.076665
  C  C150  1  0.55817272  0.65449843  0.50618610  1 0.078213
  C  C151  1  0.25879154  0.65635387  0.12376227  1 -0.083616
  C  C152  1  0.48985378  0.53140982  0.74171162  1 -0.077116
  C  C153  1  0.87623136  0.74120545  0.34364265  1 -0.08348
  C  C154  1  0.71219737  0.53096838  0.54853112  1 -0.136944
  C  C155  1  0.04155176  0.51014187  0.25184814  1 -0.076921
  C  C156  1  0.29113502  0.10042950  0.57734520  1 -0.040285
  C  C157  1  0.34550374  0.90367599  0.85169367  1 0.078296
  C  C158  1  0.44182930  0.34550148  0.49381333  1 0.078373
  C  C159  1  0.60243766  0.25879489  0.13502819  1 -0.082181
  C  C160  1  0.54661083  0.92735783  0.97449020  1 0.076641
  C  C161  1  0.65635299  0.39756262  0.53259006  1 -0.082281
  C  C162  1  0.94801483  0.09632692  0.44182883  1 0.078397
  C  C163  1  0.12890711  0.62163168  0.36726673  1 0.580141
  C  C164  1  0.38074985  0.95287267  0.92736312  1 0.076578
  C  C165  1  0.54853360  0.01756532  0.83633636  1 -0.136878
  C  C166  1  0.09632832  0.44182822  0.94801404  1 0.078201
  C  C167  1  0.71378852  0.19070646  0.29113387  1 -0.036184
  C  C168  1  0.28621479  0.80929682  0.70887400  1 -0.036168
  C  C169  1  0.50618696  0.55817092  0.65450034  1 0.078259
  C  C170  1  0.01755893  0.83633652  0.54853196  1 -0.136912
  C  C171  1  0.65449825  0.09632694  0.14831238  1 0.078341
  C  C172  1  0.02550922  0.95287236  0.57212247  1 0.076536
  C  C173  1  0.47691801  0.28621098  0.57734525  1 -0.04035
  C  C174  1  0.29113690  0.71379001  0.19070583  1 -0.036021
  C  C175  1  0.43890182  0.55017670  0.62742970  1 -0.139765
  C  C176  1  0.95844448  0.21029936  0.46859060  1 -0.076906
  C  C177  1  0.76163142  0.63272169  0.25435732  1 0.57914
  C  C178  1  0.11127366  0.92275461  0.55017838  1 -0.13987
  C  C179  1  0.81147484  0.37257296  0.92275048  1 -0.139893
  C  C180  1  0.50727714  0.74563731  0.37836154  1 0.580285
  C  C181  1  0.53096791  0.54853118  0.71219929  1 -0.136761
  C  C182  1  0.57212251  0.02551154  0.95287140  1 0.076704
  C  C183  1  0.04652142  0.07178555  0.45973342  1 -0.174357
  C  C184  1  0.28780474  0.46902710  0.45146761  1 -0.136931
  C  C185  1  0.74170872  0.21029932  0.25185480  1 -0.07825
  C  C186  1  0.21030007  0.25185748  0.74171082  1 -0.078364
  C  C187  1  0.37257636  0.56109585  0.44982143  1 -0.139828
  C  C188  1  0.57734609  0.47691794  0.28620724  1 -0.040274
  C  C189  1  0.44182950  0.94801535  0.09632836  1 0.078313
  C  C190  1  0.98243698  0.16366613  0.45146892  1 -0.136968
  C  C191  1  0.36727582  0.74563737  0.23836013  1 0.579083
  C  C192  1  0.34365031  0.87624081  0.74121658  1 -0.083632
  C  C193  1  0.74170888  0.48985424  0.53140940  1 -0.076977
  C  C194  1  0.65449828  0.50618632  0.55817114  1 0.078361
  C  C195  1  0.81876916  0.98243575  0.53096679  1 -0.136824
  C  C196  1  0.58678879  0.54026640  0.61205276  1 -0.174375
  C  C197  1  0.74120862  0.86497196  0.39756235  1 -0.082296
  C  C198  1  0.25829383  0.51014166  0.46858988  1 -0.076917
  C  C199  1  0.07725125  0.18852870  0.62742938  1 -0.139866
  C  C200  1  0.62163569  0.36727864  0.12891221  1 0.580427
  C  C201  1  0.92821338  0.97473589  0.38794729  1 -0.174418
  C  C202  1  0.74814499  0.25829131  0.78970127  1 -0.078273
  C  C203  1  0.70886407  0.89957113  0.42265323  1 -0.040185
  C  C204  1  0.92274588  0.81147115  0.37256982  1 -0.139861
  C  C205  1  0.42787940  0.38074764  0.45338897  1 0.076508
  C  C206  1  0.88872370  0.43890114  0.81147462  1 -0.139825
  C  C207  1  0.92274619  0.55017659  0.11127529  1 -0.139706
  C  C208  1  0.74120982  0.34364639  0.87623682  1 -0.083597
  C  C209  1  0.81877093  0.28780276  0.83633418  1 -0.136925
  C  C210  1  0.76163183  0.50727522  0.12891095  1 0.580379
  C  C211  1  0.61205245  0.07178579  0.02526448  1 -0.174399
  C  C212  1  0.14831228  0.65449840  0.09632598  1 0.078214
  C  C213  1  0.14831118  0.05198562  0.49381307  1 0.078202
  C  C214  1  0.49272580  0.25436263  0.62163662  1 0.580423
  C  C215  1  0.25436514  0.76164020  0.63273355  1 0.578979
  C  C216  1  0.95347609  0.92821584  0.54026637  1 -0.17423
  C  C217  1  0.18852515  0.11127674  0.56109815  1 -0.139774
  C  C218  1  0.63272594  0.87108728  0.37836202  1 0.580267
  C  C219  1  0.74814315  0.95844249  0.48985214  1 -0.077108
  C  C220  1  0.46903306  0.18123227  0.01756521  1 -0.136852
  C  C221  1  0.92735856  0.38074776  0.95286815  1 0.076478
  C  C222  1  0.62163563  0.49272469  0.25435782  1 0.580246
  C  C223  1  0.55817289  0.05198598  0.90367478  1 0.078256
  C  C224  1  0.44982266  0.88872358  0.07725018  1 -0.139808
  C  C225  1  0.58678872  0.97473592  0.04652306  1 -0.17442
  C  C226  1  0.57734613  0.29113944  0.10042907  1 -0.040385
  C  C227  1  0.62742667  0.43890092  0.55017743  1 -0.139796
  C  C228  1  0.07264137  0.61925180  0.04712974  1 0.076614
  C  C229  1  0.45339070  0.42787770  0.38074676  1 0.076717
  C  C230  1  0.46740985  0.86497205  0.12376364  1 -0.082283
  C  C231  1  0.45973454  0.38794767  0.41321067  1 -0.174428
  C  C232  1  0.54026732  0.95347797  0.92821628  1 -0.174424
  C  C233  1  0.81147347  0.88872353  0.43890092  1 -0.139759
  C  C234  1  0.39756332  0.53258951  0.65635680  1 -0.082261
  C  C235  1  0.87108827  0.23836202  0.49272479  1 0.580191
  C  C236  1  0.37836526  0.63272357  0.87109113  1 0.580266
  C  C237  1  0.83633203  0.54853134  0.01756366  1 -0.136793
  C  C238  1  0.13502408  0.87624070  0.53259052  1 -0.082316
  C  C239  1  0.90367063  0.55817115  0.05198443  1 0.078291
  C  C240  1  0.97448889  0.54661065  0.92735895  1 0.076602
  C  C241  1  0.53141185  0.74170936  0.48985214  1 -0.077128
  C  C242  1  0.25879042  0.13502819  0.60243659  1 -0.082305
  C  C243  1  0.94801543  0.50618640  0.85168829  1 0.078382
  C  C244  1  0.97448812  0.04712966  0.42787797  1 0.076624
  C  C245  1  0.89957301  0.42265491  0.70886623  1 -0.040273
  C  C246  1  0.11127413  0.56109569  0.18851934  1 -0.13985
  C  C247  1  0.49272566  0.87108736  0.23836171  1 0.58028
  C  C248  1  0.44982259  0.37257281  0.56109810  1 -0.139879
  C  C249  1  0.54661089  0.57212149  0.61925297  1 0.076608
  C  C250  1  0.85168700  0.94801531  0.50618576  1 0.078296
  C  C251  1  0.18852643  0.62742732  0.07724880  1 -0.13988
  C  C252  1  0.02550998  0.45338730  0.07263742  1 0.076602
  C  C253  1  0.49381439  0.44182858  0.34549965  1 0.078224
  C  C254  1  0.09632765  0.14831434  0.65450027  1 0.078149
  C  C255  1  0.97473588  0.04652357  0.58678893  1 -0.174367
  C  C256  1  0.34365038  0.60243409  0.46740947  1 -0.082313
  C  C257  1  0.92821407  0.54026670  0.95347803  1 -0.174386
  C  C258  1  0.61925194  0.54661056  0.57212194  1 0.076539
  C  C259  1  0.46859057  0.95844261  0.21029960  1 -0.077066
  C  C260  1  0.02526186  0.95347760  0.41321059  1 -0.174327
  C  C261  1  0.04155140  0.78970349  0.53140987  1 -0.07694
  C  C262  1  0.71378874  0.42265489  0.52308193  1 -0.040256
  C  C263  1  0.62742657  0.07724902  0.18852602  1 -0.139883
  C  C264  1  0.21030070  0.46859019  0.95844352  1 -0.07704
  C  C265  1  0.61925192  0.04712973  0.07264196  1 0.0766
  C  C266  1  0.23836480  0.36727648  0.74564148  1 0.579283
  C  C267  1  0.50618688  0.85168664  0.94801677  1 0.078242
  C  C268  1  0.45339079  0.07264395  0.02551383  1 0.076588
  C  C269  1  0.07725166  0.44982246  0.88872312  1 -0.139739
  C  C270  1  0.07178520  0.45973201  0.04651933  1 -0.174316
  C  C271  1  0.07178447  0.02526574  0.61205314  1 -0.174369
  C  C272  1  0.45973464  0.04652365  0.07178757  1 -0.174331
  C  C273  1  0.70886596  0.28621112  0.80929338  1 -0.036164
  C  C274  1  0.89957263  0.19070646  0.47691793  1 -0.040215
  C  C275  1  0.87108870  0.37836377  0.63272629  1 0.580252
  C  C276  1  0.95844483  0.48985417  0.74814529  1 -0.07695
  C  C277  1  0.95347694  0.41321029  0.02526094  1 -0.174294
  C  C278  1  0.54853324  0.71219766  0.53096689  1 -0.136845
  C  C279  1  0.04712968  0.07264367  0.61925305  1 0.076684
  C  C280  1  0.37257630  0.92275480  0.81148081  1 -0.139885
  C  C281  1  0.53141217  0.04155843  0.78970307  1 -0.077072
  C  C282  1  0.12890670  0.76164001  0.50727521  1 0.580082
  C  C283  1  0.83633139  0.81876857  0.28780084  1 -0.136793
  C  C284  1  0.16366621  0.18123130  0.71219874  1 -0.13678
  C  C285  1  0.46740983  0.34364623  0.60243669  1 -0.082224
  C  C286  1  0.56109941  0.44982283  0.37257034  1 -0.139812
  C  C287  1  0.38794912  0.41321008  0.45973308  1 -0.174221
  C  C288  1  0.05198256  0.49381057  0.14830680  1 0.078229
  C  C289  1  0.25829373  0.78970383  0.74815240  1 -0.078224
  C  C290  1  0.65635290  0.12376275  0.25879062  1 -0.083591
  C  C291  1  0.51014719  0.25185862  0.04155772  1 -0.076965
  C  C292  1  0.85168819  0.34550166  0.90367231  1 0.07831
  C  C293  1  0.53259165  0.65635386  0.39756214  1 -0.08235
  C  C294  1  0.63272630  0.25436261  0.76163735  1 0.579091
  C  C295  1  0.86497231  0.12376259  0.46740979  1 -0.082272
  C  C296  1  0.52308423  0.10042950  0.80929443  1 -0.040262
  C  C297  1  0.19070963  0.47691792  0.89957233  1 -0.040369
  C  C298  1  0.45146858  0.28780257  0.46903170  1 -0.136889
  C  C299  1  0.41321273  0.02526607  0.95348112  1 -0.17433
  C  C300  1  0.10042316  0.57734104  0.29112628  1 -0.040264
  C  C301  1  0.71219721  0.16366602  0.18122914  1 -0.136992
  C  C302  1  0.92735737  0.97449002  0.54661021  1 0.076509
  C  C303  1  0.16366680  0.45146828  0.98243575  1 -0.136741
  C  C304  1  0.49381432  0.14831485  0.05198654  1 0.078341
  C  C305  1  0.46859019  0.25829115  0.51014635  1 -0.076955
  C  C306  1  0.61205235  0.58678855  0.54026638  1 -0.174424
  C  C307  1  0.23836556  0.49272468  0.87108986  1 0.580484
  C  C308  1  0.57212234  0.61925176  0.54661042  1 0.076746
  C  C309  1  0.51014720  0.46859029  0.25828888  1 -0.076949
  C  C310  1  0.25185712  0.74170933  0.21029752  1 -0.078487
  C  C311  1  0.80928780  0.70886107  0.28620689  1 -0.036104
  C  C312  1  0.01755931  0.46902731  0.18122262  1 -0.136921
  C  C313  1  0.97473682  0.38794757  0.92821296  1 -0.174331
  C  C314  1  0.88872325  0.07724890  0.44982244  1 -0.13986
  C  C315  1  0.60243771  0.46741016  0.34364315  1 -0.082251
  C  C316  1  0.38074982  0.45338726  0.42787698  1 0.076595
  C  C317  1  0.52308415  0.71378995  0.42265301  1 -0.040061
  C  C318  1  0.12376613  0.46741003  0.86497228  1 -0.082208
  C  C319  1  0.95286797  0.92735760  0.38074694  1 0.076627
  C  C320  1  0.28621495  0.57734103  0.47691785  1 -0.040275
  C  C321  1  0.18123081  0.71219766  0.16366463  1 -0.136833
  C  C322  1  0.43890183  0.81147238  0.88872573  1 -0.139798
  C  C323  1  0.42787964  0.97449009  0.04713256  1 0.076481
  C  C324  1  0.25185532  0.04155837  0.51014624  1 -0.077028
  C  C325  1  0.28780464  0.83633697  0.81877784  1 -0.137015
  C  C326  1  0.48985365  0.74814240  0.95844476  1 -0.077145
  C  C327  1  0.12376560  0.25879398  0.65635630  1 -0.083486
  C  C328  1  0.53259167  0.13502843  0.87623777  1 -0.082274
  C  C329  1  0.07264019  0.02551115  0.45338899  1 0.076631
  C  C330  1  0.56109941  0.18852941  0.11127719  1 -0.13982
  C  C331  1  0.50727706  0.12891359  0.76163818  1 0.580248
  C  C332  1  0.46903302  0.45146859  0.28780100  1 -0.136822
  C  C333  1  0.53096792  0.81876879  0.98243754  1 -0.136688
  C  C334  1  0.55017884  0.11127712  0.92275183  1 -0.139791
  C  C335  1  0.98243743  0.53096831  0.81877103  1 -0.136952
  C  C336  1  0.95286878  0.57212178  0.02551106  1 0.07664
  C  C337  1  0.19070903  0.29113775  0.71379217  1 -0.036224
  C  C338  1  0.86497270  0.39756283  0.74120996  1 -0.082293
  C  C339  1  0.05198196  0.90367561  0.55817188  1 0.078312
  C  C340  1  0.45146900  0.98243583  0.16366671  1 -0.136829
  C  C341  1  0.10042278  0.80929656  0.52308198  1 -0.040305
  C  C342  1  0.74563733  0.37836364  0.50727505  1 0.580211
  C  C343  1  0.78969765  0.74814212  0.25828868  1 -0.078457
  C  C344  1  0.47691821  0.89957128  0.19070737  1 -0.04024
  C  C345  1  0.37836521  0.50727526  0.74564232  1 0.58029
  C  C346  1  0.36727550  0.12891381  0.62163664  1 0.580215
  C  C347  1  0.04652225  0.58678852  0.97473646  1 -0.174364
  O  O348  1  0.60336359  0.90130481  0.40358858  1 -0.520433
  O  O349  1  0.59640790  0.39663946  0.09869484  1 -0.520516
  O  O350  1  0.71622342  0.21472357  0.39802044  1 -0.521398
  O  O351  1  0.50150112  0.71622346  0.31820150  1 -0.521374
  O  O352  1  0.09868769  0.59640203  0.39662712  1 -0.520387
  O  O353  1  0.39663900  0.80022703  0.29793971  1 -0.520519
  O  O354  1  0.80022631  0.29794133  0.39663499  1 -0.520516
  O  O355  1  0.70205400  0.50228638  0.09869394  1 -0.520497
  O  O356  1  0.31820535  0.60197631  0.81670705  1 -0.521346
  O  O357  1  0.49850142  0.81670318  0.21472400  1 -0.521272
  O  O358  1  0.28377892  0.78527893  0.60198671  1 -0.521336
  O  O359  1  0.39802369  0.18329727  0.68179667  1 -0.521305
  O  O360  1  0.60336360  0.19977394  0.70205821  1 -0.520512
  O  O361  1  0.09868743  0.70206030  0.50228571  1 -0.520379
  O  O362  1  0.28377903  0.68179239  0.49849979  1 -0.521215
  O  O363  1  0.68179511  0.39802642  0.18329592  1 -0.521362
  O  O364  1  0.90130648  0.40359191  0.60336472  1 -0.52042
  O  O365  1  0.39802209  0.71622362  0.21472240  1 -0.521419
  O  O366  1  0.81670389  0.31820334  0.60197966  1 -0.521284
  O  O367  1  0.50228732  0.80022704  0.40358804  1 -0.52042
  O  O368  1  0.18329245  0.68179223  0.39801322  1 -0.521204
  O  O369  1  0.80022677  0.40359177  0.50228514  1 -0.520384
  O  O370  1  0.59640785  0.49771464  0.19976942  1 -0.520404
  O  O371  1  0.78526637  0.60197296  0.28376857  1 -0.521512
  O  O372  1  0.29794342  0.39663740  0.80023053  1 -0.520582
  O  O373  1  0.49771655  0.90130487  0.29794160  1 -0.520471
  O  O374  1  0.78526682  0.50149866  0.18329441  1 -0.521389
  O  O375  1  0.60197954  0.81670303  0.31820220  1 -0.521298
  O  O376  1  0.68179501  0.49850019  0.28376925  1 -0.52132
  O  O377  1  0.19977518  0.70206049  0.60337349  1 -0.520462
  O  O378  1  0.40359329  0.50228583  0.80023161  1 -0.52042
  O  O379  1  0.60197770  0.28377368  0.78527275  1 -0.521422
  O  O380  1  0.31820524  0.50149897  0.71622935  1 -0.521364
  O  O381  1  0.18329199  0.78527889  0.50149993  1 -0.521146
  O  O382  1  0.21472839  0.49850017  0.81670551  1 -0.521423
  O  O383  1  0.50228811  0.09869897  0.70205948  1 -0.520424
  O  O384  1  0.49771639  0.19977396  0.59641070  1 -0.520543
  O  O385  1  0.70205342  0.60336123  0.19976866  1 -0.520542
  O  O386  1  0.39663952  0.09869910  0.59641098  1 -0.520418
  O  O387  1  0.29794433  0.49771457  0.90130791  1 -0.520477
  O  O388  1  0.49850153  0.28377366  0.68179637  1 -0.521369
  O  O389  1  0.21472765  0.39802335  0.71622842  1 -0.521545
  O  O390  1  0.71622353  0.31820316  0.50149946  1 -0.521303
  O  O391  1  0.90130612  0.29794149  0.49771470  1 -0.520422
  O  O392  1  0.81670338  0.21472372  0.49850027  1 -0.521265
  O  O393  1  0.19977539  0.59640195  0.49771464  1 -0.520326
  O  O394  1  0.40359330  0.60336243  0.90130882  1 -0.520416
  O  O395  1  0.50150048  0.18329709  0.78527349  1 -0.521298
