# generated using pymatgen
data_CaCdH6(C2O)8
_symmetry_space_group_name_H-M   'P 1'
_cell_length_a   14.25450359
_cell_length_b   9.84317808
_cell_length_c   20.96113815
_cell_angle_alpha   102.28146437
_cell_angle_beta   90.00058875
_cell_angle_gamma   89.99913849
_symmetry_Int_Tables_number   1
_chemical_formula_structural   CaCdH6(C2O)8
_chemical_formula_sum   'Ca4 Cd4 H24 C64 O32'
_cell_volume   2873.74171399
_cell_formula_units_Z   4
loop_
 _symmetry_equiv_pos_site_id
 _symmetry_equiv_pos_as_xyz
  1  'x, y, z'
loop_
 _atom_site_type_symbol
 _atom_site_label
 _atom_site_symmetry_multiplicity
 _atom_site_fract_x
 _atom_site_fract_y
 _atom_site_fract_z
 _atom_site_occupancy
 _atom_site_charge
  Ca  Ca0  1  0.72749212  0.77592804  0.34265800  1 1.416709
  Ca  Ca1  1  0.27251721  0.22406317  0.65734547  1 1.416536
  Ca  Ca2  1  0.22748464  0.72405171  0.15734606  1 1.416585
  Ca  Ca3  1  0.77250888  0.27594122  0.84265426  1 1.416556
  Cd  Cd4  1  0.55079040  0.58907948  0.23882288  1 1.028657
  Cd  Cd5  1  0.94920495  0.08908828  0.73882564  1 1.028718
  Cd  Cd6  1  0.44921054  0.41092768  0.76118149  1 1.028594
  Cd  Cd7  1  0.05079655  0.91092209  0.26117308  1 1.028655
  H  H8  1  0.79460243  0.22183735  0.27192015  1 0.126296
  H  H9  1  0.79274576  0.02877582  0.43815772  1 0.105256
  H  H10  1  0.70725284  0.52878968  0.93815421  1 0.105259
  H  H11  1  0.20725053  0.97121847  0.56184238  1 0.105256
  H  H12  1  0.97523473  0.70872620  0.99743579  1 0.117865
  H  H13  1  0.12806737  0.10356490  0.05845877  1 0.114644
  H  H14  1  0.18153002  0.80991654  0.45440045  1 0.119365
  H  H15  1  0.89084777  0.69419001  0.19305872  1 0.110947
  H  H16  1  0.31847149  0.30990276  0.95439875  1 0.119319
  H  H17  1  0.68152506  0.69009471  0.04560117  1 0.119303
  H  H18  1  0.29460729  0.27812083  0.22807385  1 0.126397
  H  H19  1  0.60915362  0.19420157  0.69306052  1 0.110952
  H  H20  1  0.81846960  0.19008940  0.54559981  1 0.119368
  H  H21  1  0.02475840  0.29127661  0.00256281  1 0.117935
  H  H22  1  0.10914720  0.30580920  0.80694141  1 0.110957
  H  H23  1  0.37193590  0.60356817  0.55846638  1 0.114698
  H  H24  1  0.39084826  0.80580450  0.30693949  1 0.110983
  H  H25  1  0.70539635  0.72187426  0.77192505  1 0.126349
  H  H26  1  0.87194293  0.89642878  0.94153538  1 0.114687
  H  H27  1  0.47524041  0.79126651  0.50256282  1 0.117819
  H  H28  1  0.52475687  0.20874044  0.49743857  1 0.117851
  H  H29  1  0.62806202  0.39642743  0.44153095  1 0.114707
  H  H30  1  0.29275004  0.47121446  0.06184818  1 0.105269
  H  H31  1  0.20539544  0.77815078  0.72807816  1 0.126305
  C  C32  1  0.32624843  0.68616428  0.58429671  1 -0.139395
  C  C33  1  0.91947785  0.70712161  0.03284507  1 -0.114188
  C  C34  1  0.82510662  0.70479530  0.01396232  1 0.06973
  C  C35  1  0.45659110  0.19457632  0.61692231  1 0.593119
  C  C36  1  0.70317164  0.20818542  0.44641162  1 0.083184
  C  C37  1  0.27879352  0.80781851  0.37574274  1 -0.026772
  C  C38  1  0.79377996  0.81888102  0.85311165  1 8e-06
  C  C39  1  0.17375394  0.18615697  0.08429475  1 -0.139353
  C  C40  1  0.20195565  0.88816555  0.64918164  1 -0.044367
  C  C41  1  0.20506260  0.82233935  0.32705212  1 0.61273
  C  C42  1  0.22120562  0.30781599  0.87574044  1 -0.026984
  C  C43  1  0.70506930  0.67766057  0.17295730  1 0.612774
  C  C44  1  0.94346838  0.70242095  0.09719293  1 -0.036784
  C  C45  1  0.79804170  0.11183087  0.35081659  1 -0.044407
  C  C46  1  0.79493584  0.17766732  0.67294890  1 0.612623
  C  C47  1  0.23410189  0.89216516  0.58653869  1 -0.179803
  C  C48  1  0.67862414  0.44103348  0.32475976  1 0.628217
  C  C49  1  0.04340938  0.69456822  0.11691999  1 0.59325
  C  C50  1  0.76792038  0.21771458  0.32021885  1 -0.109156
  C  C51  1  0.24477644  0.30548714  0.94020425  1 -0.116664
  C  C52  1  0.62703651  0.19808719  0.64304116  1 -0.100298
  C  C53  1  0.86868537  0.00574374  0.31961088  1 0.591146
  C  C54  1  0.79682431  0.70819863  0.94641398  1 0.083319
  C  C55  1  0.55652847  0.20242945  0.59719313  1 -0.036762
  C  C56  1  0.72120790  0.19218878  0.62425766  1 -0.026684
  C  C57  1  0.17861656  0.05894651  0.17523557  1 0.627869
  C  C58  1  0.73207332  0.71774010  0.82022206  1 -0.109186
  C  C59  1  0.67488928  0.20480026  0.51396253  1 0.069731
  C  C60  1  0.73410333  0.60784520  0.91345950  1 -0.179857
  C  C61  1  0.32137320  0.55895403  0.67523551  1 0.627882
  C  C62  1  0.37296824  0.80192045  0.35695980  1 -0.100342
  C  C63  1  0.77879179  0.69218157  0.12425921  1 -0.026845
  C  C64  1  0.87296470  0.69807356  0.14304038  1 -0.10025
  C  C65  1  0.26589950  0.39215665  0.08654176  1 -0.179794
  C  C66  1  0.23207492  0.78227735  0.67977927  1 -0.109074
  C  C67  1  0.82138887  0.94104651  0.82476101  1 0.627888
  C  C68  1  0.20317673  0.29180769  0.05358670  1 0.083111
  C  C69  1  0.13131953  0.99426153  0.68038870  1 0.590966
  C  C70  1  0.29492942  0.32233943  0.82704529  1 0.612787
  C  C71  1  0.29377468  0.68112732  0.64688766  1 1.1e-05
  C  C72  1  0.26793059  0.28225391  0.17977668  1 -0.109235
  C  C73  1  0.25522305  0.80548920  0.44020592  1 -0.116739
  C  C74  1  0.58051718  0.20713132  0.53284639  1 -0.114179
  C  C75  1  0.70622039  0.31886597  0.35311021  1 0.000128
  C  C76  1  0.17488998  0.29521062  0.98603865  1 0.069816
  C  C77  1  0.08051750  0.29288332  0.96715660  1 -0.114361
  C  C78  1  0.12703032  0.30192851  0.85696036  1 -0.100223
  C  C79  1  0.36868564  0.49423582  0.18039451  1 0.591115
  C  C80  1  0.20622623  0.18111258  0.14688513  1 6.2e-05
  C  C81  1  0.32511125  0.79520496  0.48603740  1 0.06975
  C  C82  1  0.74477819  0.19451608  0.55979368  1 -0.116789
  C  C83  1  0.29682470  0.79181041  0.55358598  1 0.083156
  C  C84  1  0.82625122  0.81383843  0.91570287  1 -0.139477
  C  C85  1  0.70195538  0.61185382  0.85081697  1 -0.044399
  C  C86  1  0.29804997  0.38814369  0.14918283  1 -0.044431
  C  C87  1  0.76589375  0.10782585  0.41345907  1 -0.179761
  C  C88  1  0.75521900  0.69451393  0.05979525  1 -0.116647
  C  C89  1  0.54341353  0.80542248  0.38308291  1 0.593565
  C  C90  1  0.95658638  0.30543456  0.88307991  1 0.593085
  C  C91  1  0.05652829  0.29758492  0.90280816  1 -0.036688
  C  C92  1  0.41948338  0.79287275  0.46715441  1 -0.114184
  C  C93  1  0.63131382  0.50576580  0.81960768  1 0.591144
  C  C94  1  0.44347357  0.79757794  0.40280794  1 -0.036757
  C  C95  1  0.67374857  0.31382827  0.41570103  1 -0.139517
  O  O96  1  0.92589830  0.04231975  0.27959089  1 -0.528531
  O  O97  1  0.89242408  0.33989842  0.92482663  1 -0.579509
  O  O98  1  0.62561508  0.41840682  0.27497888  1 -0.554836
  O  O99  1  0.77275382  0.20320283  0.73317593  1 -0.663203
  O  O100  1  0.93664066  0.27964885  0.82074438  1 -0.67484
  O  O101  1  0.86941605  0.88732045  0.33521125  1 -0.651628
  O  O102  1  0.87440345  0.91842104  0.77498488  1 -0.554519
  O  O103  1  0.10756848  0.66009747  0.07517178  1 -0.579647
  O  O104  1  0.79006913  0.05845737  0.85441404  1 -0.654003
  O  O105  1  0.22724310  0.79680297  0.26682361  1 -0.663279
  O  O106  1  0.39243182  0.16009975  0.57517433  1 -0.57957
  O  O107  1  0.12560585  0.08158414  0.22501504  1 -0.554566
  O  O108  1  0.37438448  0.58158375  0.72501604  1 -0.554631
  O  O109  1  0.42589887  0.45767586  0.22041882  1 -0.528423
  O  O110  1  0.29005810  0.44154847  0.64557809  1 -0.653923
  O  O111  1  0.62348500  0.63636490  0.15193464  1 -0.543827
  O  O112  1  0.20993484  0.94153637  0.14558380  1 -0.653948
  O  O113  1  0.37651080  0.36364149  0.84806920  1 -0.543824
  O  O114  1  0.07410542  0.95769747  0.72041226  1 -0.52844
  O  O115  1  0.27274020  0.29679808  0.76682027  1 -0.66315
  O  O116  1  0.57409920  0.54233626  0.77958770  1 -0.528418
  O  O117  1  0.87651354  0.13635286  0.65192440  1 -0.5437
  O  O118  1  0.36940565  0.61266283  0.16479567  1 -0.651586
  O  O119  1  0.06335469  0.72035882  0.17925605  1 -0.674855
  O  O120  1  0.60757342  0.83988757  0.42483144  1 -0.579779
  O  O121  1  0.13059362  0.11268005  0.66478518  1 -0.65153
  O  O122  1  0.63058727  0.38733654  0.83520560  1 -0.651627
  O  O123  1  0.43664533  0.22036838  0.67925955  1 -0.67476
  O  O124  1  0.12348551  0.86364750  0.34807624  1 -0.54371
  O  O125  1  0.72725980  0.70319535  0.23318162  1 -0.663182
  O  O126  1  0.56336366  0.77963711  0.32074607  1 -0.675052
  O  O127  1  0.70994028  0.55843972  0.35441642  1 -0.654113
