# generated using pymatgen
data_CuH36(C11N6)2
_symmetry_space_group_name_H-M   'P 1'
_cell_length_a   13.62985784
_cell_length_b   12.44852022
_cell_length_c   14.11862148
_cell_angle_alpha   104.64082389
_cell_angle_beta   104.99906226
_cell_angle_gamma   115.14497538
_symmetry_Int_Tables_number   1
_chemical_formula_structural   CuH36(C11N6)2
_chemical_formula_sum   'Cu2 H72 C44 N24'
_cell_volume   1905.90520286
_cell_formula_units_Z   2
loop_
 _symmetry_equiv_pos_site_id
 _symmetry_equiv_pos_as_xyz
  1  'x, y, z'
loop_
 _atom_site_type_symbol
 _atom_site_label
 _atom_site_symmetry_multiplicity
 _atom_site_fract_x
 _atom_site_fract_y
 _atom_site_fract_z
 _atom_site_occupancy
 _atom_site_charge
  Cu  Cu0  1  0.04480539  0.53649604  -0.01851706  1 0.287865
  Cu  Cu1  1  0.53150168  -0.00219313  0.54072669  1 0.275521
  H  H2  1  0.76237032  0.32460512  0.16337737  1 0.030512
  H  H3  1  0.91158904  0.63168293  0.07327469  1 0.081404
  H  H4  1  0.77661981  0.72788225  0.23792021  1 0.075302
  H  H5  1  0.89808773  0.79892110  0.20330958  1 0.085393
  H  H6  1  0.03710629  0.82485890  0.37607921  1 0.088835
  H  H7  1  0.91540233  0.75181790  0.40868172  1 0.089143
  H  H8  1  0.00699424  0.01096128  0.38346407  1 0.070493
  H  H9  1  0.87554638  0.93325416  0.40276567  1 0.061414
  H  H10  1  0.71543898  0.91092976  0.48209072  1 0.080003
  H  H11  1  0.57337522  0.85291743  0.70863471  1 0.072693
  H  H12  1  0.78961759  0.73675991  0.74148952  1 0.091454
  H  H13  1  0.70319438  0.77550777  0.80216103  1 0.087302
  H  H14  1  0.85279359  0.01515660  0.86925785  1 0.05561
  H  H15  1  0.94264874  -0.02512511  0.81518865  1 0.077699
  H  H16  1  0.86994935  0.89339879  0.98635897  1 0.063564
  H  H17  1  0.96711198  0.86483982  0.93713636  1 0.072716
  H  H18  1  -0.00346466  0.36945700  0.11622563  1 0.088522
  H  H19  1  0.31084182  0.71105475  0.18390049  1 0.049073
  H  H20  1  0.43961924  0.73518116  0.36117753  1 0.074711
  H  H21  1  0.35391326  0.65749191  0.42466821  1 0.093181
  H  H22  1  0.58098523  0.45107649  0.22928750  1 0.064282
  H  H23  1  0.48519237  0.37495201  0.28590081  1 0.056336
  H  H24  1  0.73952584  0.61239548  0.40404489  1 0.074711
  H  H25  1  0.64929764  0.56405890  0.47245769  1 0.07645
  H  H26  1  0.68728242  0.37010808  0.32938312  1 0.063379
  H  H27  1  0.63543854  0.35773203  0.43122612  1 0.070098
  H  H28  1  0.83913657  0.53820804  0.57240960  1 0.088654
  H  H29  1  0.88660527  0.56073811  0.46935655  1 0.0832
  H  H30  1  0.85017623  0.33420354  0.40616845  1 0.064096
  H  H31  1  0.96090317  0.43793447  0.54094507  1 0.09278
  H  H32  1  0.79879472  0.18875645  0.70958280  1 0.076783
  H  H33  1  0.62541683  0.16509299  0.40444239  1 0.071819
  H  H34  1  0.43693017  0.51790383  0.20652123  1 0.064221
  H  H35  1  0.57245685  0.65555757  0.30906987  1 0.063379
  H  H36  1  0.37448120  0.46319259  0.35184460  1 0.086335
  H  H37  1  0.50562908  0.60799067  0.45029568  1 0.094762
  H  H38  1  0.17578032  0.60391332  0.81456935  1 0.039977
  H  H39  1  0.05363398  0.27310124  0.88307715  1 0.098581
  H  H40  1  0.22090408  0.23561518  0.72541749  1 0.074458
  H  H41  1  0.10370793  0.14124730  0.75643382  1 0.0737
  H  H42  1  0.95444118  0.11577080  0.58874690  1 0.083706
  H  H43  1  0.07328943  0.20353497  0.55734340  1 0.093897
  H  H44  1  0.00075209  0.94217667  0.57637353  1 0.07318
  H  H45  1  0.12980305  0.03111674  0.55751249  1 0.073152
  H  H46  1  0.31805062  0.10635661  0.51633383  1 0.08987
  H  H47  1  0.41728685  0.16577605  0.26818321  1 0.058497
  H  H48  1  0.18606800  0.25645559  0.25949140  1 0.095762
  H  H49  1  0.27225186  0.23400238  0.19050538  1 0.08926
  H  H50  1  0.13436981  0.98819253  0.12033540  1 0.055183
  H  H51  1  0.04195238  0.01703052  0.17770566  1 0.084591
  H  H52  1  0.10686785  0.10886864  0.00773101  1 0.053998
  H  H53  1  0.01106793  0.13425386  0.06146441  1 0.074587
  H  H54  1  0.00547770  0.68145920  0.82733529  1 0.058344
  H  H55  1  0.76283110  0.38689421  0.88625880  1 0.087549
  H  H56  1  0.57536814  0.29960168  0.71646016  1 0.079107
  H  H57  1  0.61903501  0.31182025  0.61053768  1 0.087926
  H  H58  1  0.41838267  0.57657680  0.78118293  1 0.056351
  H  H59  1  0.51296531  0.64147169  0.71979244  1 0.054467
  H  H60  1  0.26458344  0.39295767  0.60425036  1 0.076155
  H  H61  1  0.35795283  0.45158766  0.54012867  1 0.07837
  H  H62  1  0.28555841  0.61536251  0.67244534  1 0.062528
  H  H63  1  0.36321829  0.65773623  0.59249857  1 0.052756
  H  H64  1  0.17929954  0.48167970  0.42479718  1 0.088668
  H  H65  1  0.10552996  0.43005935  0.50532500  1 0.090188
  H  H66  1  0.12508688  0.64660447  0.58121459  1 0.061037
  H  H67  1  0.04419193  0.56654693  0.43787326  1 0.101433
  H  H68  1  0.28669772  0.87705527  0.34936596  1 0.081885
  H  H69  1  0.36196452  0.84852214  0.64778578  1 0.03666
  H  H70  1  0.57652834  0.52801350  0.81883184  1 0.0676
  H  H71  1  0.43688598  0.38128507  0.74006273  1 0.065732
  H  H72  1  0.60383409  0.51844553  0.64313943  1 0.091845
  H  H73  1  0.47216102  0.36397185  0.57582721  1 0.09113
  C  C74  1  0.79729245  0.41946477  0.16034268  1 0.129511
  C  C75  1  0.87126723  0.57135931  0.11213235  1 0.064244
  C  C76  1  0.86495202  0.74223255  0.24838920  1 -0.068516
  C  C77  1  0.95026182  0.81353839  0.36753258  1 -0.168826
  C  C78  1  0.96441981  0.94577199  0.41950743  1 -0.133065
  C  C79  1  0.69921657  0.88707945  0.54755443  1 0.128219
  C  C80  1  0.62378452  0.85717111  0.66006072  1 0.024388
  C  C81  1  0.76810776  0.81167546  0.76802238  1 -0.082805
  C  C82  1  0.87875929  0.94206576  0.85120215  1 -0.162119
  C  C83  1  0.93682691  0.93385760  0.95470401  1 -0.132187
  C  C84  1  0.08921338  0.44795943  0.15276979  1 0.129039
  C  C85  1  0.24646192  0.62269743  0.18508921  1 0.07305
  C  C86  1  0.37933605  0.63956120  0.35728260  1 -0.075384
  C  C87  1  0.55513622  0.47049762  0.29656115  1 -0.142548
  C  C88  1  0.66424728  0.52731174  0.40129810  1 -0.138454
  C  C89  1  0.69854199  0.42698832  0.40960500  1 -0.139178
  C  C90  1  0.82651522  0.48749177  0.49016153  1 -0.173228
  C  C91  1  0.86587157  0.38917958  0.48886360  1 -0.074894
  C  C92  1  0.78195646  0.20905211  0.63860551  1 0.113461
  C  C93  1  0.69132930  0.19455704  0.48303614  1 0.038535
  C  C94  1  0.50175796  0.55591607  0.28999068  1 -0.138038
  C  C95  1  0.44045191  0.56238926  0.36604032  1 -0.164176
  C  C96  1  0.15313637  0.50857654  0.81341623  1 0.130061
  C  C97  1  0.08998746  0.34250344  0.84958370  1 0.05088
  C  C98  1  0.12906361  0.20628329  0.71551854  1 -0.073217
  C  C99  1  0.04385354  0.13689776  0.59623109  1 -0.166714
  C  C100  1  0.03859262  0.01088295  0.54118976  1 -0.135136
  C  C101  1  0.32152435  0.12730357  0.44675322  1 0.129395
  C  C102  1  0.37453964  0.15695745  0.32336495  1 0.062539
  C  C103  1  0.21219409  0.18838809  0.22628849  1 -0.086718
  C  C104  1  0.10431696  0.05671859  0.14187858  1 -0.1594
  C  C105  1  0.04189868  0.06630781  0.04071813  1 -0.133365
  C  C106  1  0.92322051  0.60309101  0.81997864  1 0.127354
  C  C107  1  0.80147684  0.45283188  0.85078088  1 0.035618
  C  C108  1  0.61740951  0.36839206  0.68309807  1 -0.072543
  C  C109  1  0.44497650  0.54928075  0.71596516  1 -0.13959
  C  C110  1  0.33637271  0.48212555  0.60827191  1 -0.145205
  C  C111  1  0.29306874  0.57483563  0.59736895  1 -0.137612
  C  C112  1  0.17452328  0.51596393  0.50237841  1 -0.175271
  C  C113  1  0.13182977  0.61211849  0.50424326  1 -0.074778
  C  C114  1  0.27861932  0.84104559  0.41105744  1 0.111922
  C  C115  1  0.32101774  0.82827991  0.56358516  1 0.026684
  C  C116  1  0.50205406  0.47071113  0.73777343  1 -0.138844
  C  C117  1  0.54745516  0.43268029  0.65461116  1 -0.16892
  N  N118  1  0.84874035  0.61510639  0.19690043  1 0.137152
  N  N119  1  0.80101851  0.51831288  0.22944904  1 -0.258244
  N  N120  1  0.83938328  0.44685820  0.08646800  1 -0.380203
  N  N121  1  0.70947507  0.82606349  0.67472478  1 0.116509
  N  N122  1  0.76046374  0.84722671  0.60367087  1 -0.286158
  N  N123  1  0.61460563  0.89444030  0.57843521  1 -0.316515
  N  N124  1  0.27189101  0.57539562  0.25820000  1 0.132994
  N  N125  1  0.17199917  0.46335492  0.23854685  1 -0.270968
  N  N126  1  0.13055950  0.54320732  0.11655962  1 -0.294308
  N  N127  1  0.80592342  0.29585881  0.52915912  1 0.138665
  N  N128  1  0.86518453  0.30585408  0.62866596  1 -0.259349
  N  N129  1  0.67352512  0.13866873  0.55193554  1 -0.303528
  N  N130  1  0.13005616  0.32184002  0.77254266  1 0.132364
  N  N131  1  0.17104830  0.42774833  0.74854525  1 -0.249276
  N  N132  1  0.10414259  0.46114263  0.87729000  1 -0.304927
  N  N133  1  0.28087197  0.17344224  0.31405569  1 0.126198
  N  N134  1  0.24416847  0.15276584  0.39253622  1 -0.281542
  N  N135  1  0.40360343  0.12890009  0.40766899  1 -0.373163
  N  N136  1  0.74028631  0.46093129  0.76286791  1 0.129077
  N  N137  1  0.81751660  0.55692541  0.74223514  1 -0.264433
  N  N138  1  0.91862002  0.54318483  0.88877840  1 -0.303247
  N  N139  1  0.20983617  0.72575201  0.49209560  1 0.126126
  N  N140  1  0.18166185  0.73376220  0.39428255  1 -0.270729
  N  N141  1  0.36748463  0.90244230  0.51293363  1 -0.322485
