# generated using pymatgen
data_CuH16(C9O2)2
_symmetry_space_group_name_H-M   'P 1'
_cell_length_a   21.55310525
_cell_length_b   21.55306846
_cell_length_c   30.06532720
_cell_angle_alpha   97.27860074
_cell_angle_beta   97.27931287
_cell_angle_gamma   117.64915503
_symmetry_Int_Tables_number   1
_chemical_formula_structural   CuH16(C9O2)2
_chemical_formula_sum   'Cu12 H192 C216 O48'
_cell_volume   11995.24662449
_cell_formula_units_Z   12
loop_
 _symmetry_equiv_pos_site_id
 _symmetry_equiv_pos_as_xyz
  1  'x, y, z'
loop_
 _atom_site_type_symbol
 _atom_site_label
 _atom_site_symmetry_multiplicity
 _atom_site_fract_x
 _atom_site_fract_y
 _atom_site_fract_z
 _atom_site_occupancy
 _atom_site_charge
  Cu  Cu0  1  0.70202991  0.75379857  0.73396109  1 0.83354
  Cu  Cu1  1  0.82252772  0.77030556  0.74104804  1 0.832082
  Cu  Cu2  1  0.46811157  0.97419767  0.52929276  1 0.831409
  Cu  Cu3  1  0.24620828  0.29798022  0.76603984  1 0.833545
  Cu  Cu4  1  0.22970594  0.17747583  0.75895386  1 0.832112
  Cu  Cu5  1  0.02581673  0.53188602  0.97070298  1 0.831422
  Cu  Cu6  1  0.29796429  0.24619973  0.26603708  1 0.833448
  Cu  Cu7  1  0.17748077  0.22970186  0.25895406  1 0.831946
  Cu  Cu8  1  0.53189461  0.02582980  0.47072933  1 0.83159
  Cu  Cu9  1  0.75378497  0.70202297  0.23395951  1 0.833707
  Cu  Cu10  1  0.77029547  0.82251080  0.24104520  1 0.831951
  Cu  Cu11  1  0.97418238  0.46809369  0.02927383  1 0.831494
  H  H12  1  0.77803165  0.55151311  0.71440754  1 0.114331
  H  H13  1  0.57663854  0.53614439  0.65947304  1 0.118161
  H  H14  1  0.79459481  0.45081640  0.70586763  1 0.127052
  H  H15  1  0.71853187  0.36346803  0.69029482  1 0.124239
  H  H16  1  0.76222583  0.40358403  0.64767224  1 0.130339
  H  H17  1  0.47291548  0.41435121  0.62601166  1 0.128082
  H  H18  1  0.50764260  0.40687474  0.57645084  1 0.130427
  H  H19  1  0.48591428  0.33982042  0.60912604  1 0.128057
  H  H20  1  0.59719659  0.24576385  0.51519344  1 0.116862
  H  H21  1  0.51631376  0.16003491  0.62940320  1 0.115783
  H  H22  1  0.63770729  0.43000927  0.56133756  1 0.128069
  H  H23  1  0.63429480  0.36898967  0.51386063  1 0.127828
  H  H24  1  0.70868106  0.41057992  0.56084236  1 0.129206
  H  H25  1  0.51592904  0.23663382  0.69516692  1 0.130111
  H  H26  1  0.53641921  0.32608300  0.69294178  1 0.132961
  H  H27  1  0.60531475  0.30815091  0.71348377  1 0.121101
  H  H28  1  0.74189577  0.96041189  0.79205173  1 0.116431
  H  H29  1  0.95561364  0.99758060  0.79251989  1 0.119512
  H  H30  1  0.72067388  0.05577565  0.81897160  1 0.126489
  H  H31  1  0.77426512  0.09642815  0.87530550  1 0.128745
  H  H32  1  0.79124029  0.14643635  0.83197107  1 0.128047
  H  H33  1  0.05720298  0.11364315  0.82308142  1 0.139113
  H  H34  1  0.04315709  0.18905309  0.82924754  1 0.134354
  H  H35  1  0.04813837  0.15039797  0.87678371  1 0.127892
  H  H36  1  0.97491236  0.35618798  0.86077549  1 0.115804
  H  H37  1  0.96154860  0.26437398  0.98028355  1 0.114655
  H  H38  1  0.95100210  0.19783055  0.78140876  1 0.127883
  H  H39  1  0.87565339  0.21001192  0.78031706  1 0.122571
  H  H40  1  0.96151618  0.28553869  0.78620140  1 0.13089
  H  H41  1  0.94672776  0.09723970  0.92384853  1 0.13073
  H  H42  1  0.94277906  0.14555168  0.97518444  1 0.126149
  H  H43  1  0.86438320  0.09057020  0.93170837  1 0.128984
  H  H44  1  0.79518886  0.88159674  0.38724501  1 0.116158
  H  H45  1  0.68396158  0.65175438  0.35868452  1 0.118398
  H  H46  1  0.83058315  0.94978171  0.46385093  1 0.124928
  H  H47  1  0.84010449  0.90735533  0.50940641  1 0.126108
  H  H48  1  0.76131439  0.91259178  0.49468981  1 0.129426
  H  H49  1  0.65298933  0.63789910  0.47752737  1 0.128513
  H  H50  1  0.70901625  0.61251176  0.45117837  1 0.130774
  H  H51  1  0.62460891  0.59150179  0.41904713  1 0.123678
  H  H52  1  0.84846110  0.76982607  0.60403021  1 0.117343
  H  H53  1  0.65376799  0.78073113  0.59669018  1 0.119012
  H  H54  1  0.83499915  0.72870011  0.48116048  1 0.128548
  H  H55  1  0.89281907  0.81958590  0.50720964  1 0.129591
  H  H56  1  0.89028774  0.75235509  0.53670833  1 0.128285
  H  H57  1  0.58132669  0.76352197  0.52224745  1 0.13099
  H  H58  1  0.64264653  0.83406021  0.49984664  1 0.131926
  H  H59  1  0.60750112  0.74465853  0.47049557  1 0.127755
  H  H60  1  0.44848056  0.22197439  0.78559825  1 0.114431
  H  H61  1  0.46385141  0.42336569  0.84053314  1 0.118269
  H  H62  1  0.54918538  0.20541319  0.79413564  1 0.126932
  H  H63  1  0.63653298  0.28148625  0.80971033  1 0.12425
  H  H64  1  0.59641740  0.23778666  0.85233405  1 0.130193
  H  H65  1  0.58565361  0.52709301  0.87399227  1 0.128068
  H  H66  1  0.59312985  0.49236265  0.92355442  1 0.130327
  H  H67  1  0.66018130  0.51408353  0.89087486  1 0.12807
  H  H68  1  0.75423619  0.40281247  0.98481095  1 0.116783
  H  H69  1  0.83996189  0.48368898  0.87059767  1 0.115869
  H  H70  1  0.56999329  0.36229863  0.93867167  1 0.128033
  H  H71  1  0.63102026  0.36571608  0.98614546  1 0.127771
  H  H72  1  0.58942648  0.29132785  0.93916479  1 0.129147
  H  H73  1  0.76337977  0.48407826  0.80484257  1 0.130072
  H  H74  1  0.67392944  0.46359266  0.80705595  1 0.132919
  H  H75  1  0.69186041  0.39469494  0.78651883  1 0.121042
  H  H76  1  0.03960119  0.25810890  0.70796301  1 0.116382
  H  H77  1  0.00244393  0.04439485  0.70748268  1 0.11942
  H  H78  1  0.94423733  0.27933008  0.68103081  1 0.126592
  H  H79  1  0.90354145  0.22570863  0.62470412  1 0.128747
  H  H80  1  0.85357677  0.20875845  0.66806383  1 0.128115
  H  H81  1  0.88637186  0.94280111  0.67692086  1 0.138989
  H  H82  1  0.81096716  0.95686038  0.67075715  1 0.134488
  H  H83  1  0.84962171  0.95187586  0.62321801  1 0.127948
  H  H84  1  0.64382038  0.02508653  0.63922784  1 0.115715
  H  H85  1  0.73563064  0.03844589  0.51972049  1 0.114577
  H  H86  1  0.80216787  0.04899288  0.71859476  1 0.127924
  H  H87  1  0.78998727  0.12434352  0.71968594  1 0.122617
  H  H88  1  0.71446050  0.03848078  0.71379756  1 0.130892
  H  H89  1  0.90276139  0.05326605  0.57615861  1 0.130703
  H  H90  1  0.85445390  0.05721589  0.52482058  1 0.126167
  H  H91  1  0.90943461  0.13561267  0.56829620  1 0.128998
  H  H92  1  0.11840252  0.20482107  0.11274123  1 0.116124
  H  H93  1  0.34824681  0.31605063  0.14130548  1 0.118384
  H  H94  1  0.05021972  0.16942175  0.03613438  1 0.124849
  H  H95  1  0.09265155  0.15990291  0.99058014  1 0.126151
  H  H96  1  0.08741177  0.23869322  0.00529515  1 0.129432
  H  H97  1  0.36209719  0.34702082  0.02246108  1 0.128466
  H  H98  1  0.38748989  0.29099557  0.04881124  1 0.13074
  H  H99  1  0.40849946  0.37540661  0.08094210  1 0.123655
  H  H100  1  0.23017575  0.15155128  0.89595604  1 0.117364
  H  H101  1  0.21927195  0.34624037  0.90329562  1 0.118929
  H  H102  1  0.27130301  0.16501663  0.01882780  1 0.128549
  H  H103  1  0.18041227  0.10719469  0.99277649  1 0.129591
  H  H104  1  0.24764541  0.10972176  0.96327851  1 0.128218
  H  H105  1  0.23647917  0.41868182  0.97773706  1 0.131057
  H  H106  1  0.16594245  0.35735704  0.00014006  1 0.131855
  H  H107  1  0.25534991  0.39250745  0.02949111  1 0.127672
  H  H108  1  0.22198338  0.44850655  0.28560046  1 0.114373
  H  H109  1  0.42337344  0.46387277  0.34053465  1 0.118199
  H  H110  1  0.20542308  0.54920767  0.29414174  1 0.12689
  H  H111  1  0.28149555  0.63655661  0.30971714  1 0.124152
  H  H112  1  0.23779497  0.59643929  0.35234075  1 0.130115
  H  H113  1  0.52709917  0.58567385  0.37399855  1 0.12813
  H  H114  1  0.49236974  0.59314967  0.42356146  1 0.130356
  H  H115  1  0.51408903  0.66020186  0.39088143  1 0.12812
  H  H116  1  0.40282423  0.75425629  0.48482370  1 0.116789
  H  H117  1  0.48370150  0.83998837  0.37061375  1 0.115794
  H  H118  1  0.36230972  0.57001570  0.43867684  1 0.128075
  H  H119  1  0.36572126  0.63103490  0.48615437  1 0.127788
  H  H120  1  0.29133676  0.58944650  0.43917094  1 0.129338
  H  H121  1  0.48408317  0.76340171  0.30485126  1 0.130066
  H  H122  1  0.46359982  0.67395254  0.30707100  1 0.133012
  H  H123  1  0.39470002  0.69188078  0.28653236  1 0.121104
  H  H124  1  0.25809258  0.03957195  0.20794278  1 0.116507
  H  H125  1  0.04437680  0.00240562  0.20747175  1 0.119484
  H  H126  1  0.27931021  0.94419741  0.18102031  1 0.126657
  H  H127  1  0.22571331  0.90354888  0.12468388  1 0.128697
  H  H128  1  0.20872936  0.85353751  0.16801938  1 0.128055
  H  H129  1  0.94278721  0.88633798  0.17690890  1 0.13913
  H  H130  1  0.95684396  0.81093106  0.17074328  1 0.134325
  H  H131  1  0.95185516  0.84958446  0.12320408  1 0.127884
  H  H132  1  0.02507114  0.64379370  0.13920782  1 0.115788
  H  H133  1  0.03843386  0.73560964  0.01970101  1 0.11457
  H  H134  1  0.04897717  0.80213548  0.21857814  1 0.127896
  H  H135  1  0.12433001  0.78996198  0.21966733  1 0.122502
  H  H136  1  0.03847009  0.71442965  0.21377732  1 0.130925
  H  H137  1  0.05325431  0.90273822  0.07613636  1 0.130624
  H  H138  1  0.05720370  0.85442793  0.02480016  1 0.126161
  H  H139  1  0.13559933  0.90940963  0.06827672  1 0.128894
  H  H140  1  0.20481807  0.11840933  0.61277304  1 0.116169
  H  H141  1  0.31605105  0.34825199  0.64133499  1 0.118464
  H  H142  1  0.16942347  0.05022419  0.53617104  1 0.124994
  H  H143  1  0.15989989  0.09265121  0.49061474  1 0.126094
  H  H144  1  0.23869213  0.08741391  0.50532973  1 0.129335
  H  H145  1  0.34702555  0.36210756  0.52249480  1 0.128198
  H  H146  1  0.29099454  0.38749358  0.54884298  1 0.130717
  H  H147  1  0.37540313  0.40850488  0.58097709  1 0.12387
  H  H148  1  0.15154726  0.23017489  0.39598587  1 0.117321
  H  H149  1  0.34623780  0.21927292  0.40332505  1 0.119026
  H  H150  1  0.16501734  0.27130344  0.51885963  1 0.128487
  H  H151  1  0.10719363  0.18041378  0.49280755  1 0.129504
  H  H152  1  0.10972376  0.24764965  0.46331074  1 0.128184
  H  H153  1  0.41868216  0.23648629  0.47776878  1 0.130848
  H  H154  1  0.35735843  0.16594545  0.50017037  1 0.131851
  H  H155  1  0.39250442  0.25535168  0.52952191  1 0.127485
  H  H156  1  0.55150433  0.77802666  0.21439588  1 0.11441
  H  H157  1  0.53613621  0.57664003  0.15945357  1 0.118196
  H  H158  1  0.45081184  0.79459206  0.20585793  1 0.126914
  H  H159  1  0.36346169  0.71852891  0.19028507  1 0.124051
  H  H160  1  0.40357506  0.76222849  0.14766217  1 0.130185
  H  H161  1  0.41434633  0.47291951  0.12599373  1 0.128071
  H  H162  1  0.40686895  0.50764437  0.07643061  1 0.130353
  H  H163  1  0.33981287  0.48591518  0.10910586  1 0.128087
  H  H164  1  0.24576501  0.59719230  0.01517122  1 0.116871
  H  H165  1  0.16003449  0.51632146  0.12938623  1 0.115854
  H  H166  1  0.43000650  0.63770695  0.06131593  1 0.127967
  H  H167  1  0.36898496  0.63429345  0.01384096  1 0.127908
  H  H168  1  0.41057915  0.70868057  0.06082263  1 0.129184
  H  H169  1  0.23662399  0.51594014  0.19514857  1 0.130135
  H  H170  1  0.32607422  0.53642855  0.19293130  1 0.132972
  H  H171  1  0.30814285  0.60532543  0.21346776  1 0.121091
  H  H172  1  0.96040430  0.74187405  0.29205009  1 0.116402
  H  H173  1  0.99756457  0.95558916  0.29252871  1 0.119599
  H  H174  1  0.05576432  0.72065402  0.31897319  1 0.126495
  H  H175  1  0.09642066  0.77424344  0.37530919  1 0.128756
  H  H176  1  0.14642607  0.79122199  0.33197172  1 0.127997
  H  H177  1  0.11362185  0.05717640  0.32309378  1 0.139159
  H  H178  1  0.18903520  0.04313238  0.32925901  1 0.134486
  H  H179  1  0.15037809  0.04811131  0.37679748  1 0.127815
  H  H180  1  0.35617814  0.97489510  0.36078924  1 0.115805
  H  H181  1  0.26436668  0.96154791  0.48029710  1 0.114544
  H  H182  1  0.19782492  0.95098352  0.28142058  1 0.127857
  H  H183  1  0.21000486  0.87563275  0.28032787  1 0.12263
  H  H184  1  0.28553186  0.96149588  0.28621442  1 0.130811
  H  H185  1  0.09723825  0.94672612  0.42385591  1 0.13068
  H  H186  1  0.14554313  0.94277813  0.47519501  1 0.12614
  H  H187  1  0.09055941  0.86437945  0.43172122  1 0.128895
  H  H188  1  0.88159453  0.79518045  0.88724306  1 0.116186
  H  H189  1  0.65174581  0.68394803  0.85867720  1 0.118386
  H  H190  1  0.94977580  0.83057421  0.96384728  1 0.124881
  H  H191  1  0.90735090  0.84009442  0.00940165  1 0.126121
  H  H192  1  0.91258905  0.76130763  0.99468659  1 0.129278
  H  H193  1  0.63788696  0.65297656  0.97751786  1 0.128499
  H  H194  1  0.61250390  0.70900521  0.95117057  1 0.130716
  H  H195  1  0.59149054  0.62459728  0.91903925  1 0.123725
  H  H196  1  0.76981098  0.84844151  0.10402327  1 0.117391
  H  H197  1  0.78072137  0.65375533  0.09668470  1 0.119004
  H  H198  1  0.72869212  0.83498471  0.98115119  1 0.128509
  H  H199  1  0.81957928  0.89280261  0.00720349  1 0.129631
  H  H200  1  0.75234715  0.89027346  0.03670001  1 0.128275
  H  H201  1  0.76351644  0.58131553  0.02223969  1 0.130999
  H  H202  1  0.83405471  0.64264156  0.99984097  1 0.131922
  H  H203  1  0.74465167  0.60749234  0.97048748  1 0.127705
  C  C204  1  0.70989679  0.62845319  0.70802099  1 0.586895
  C  C205  1  0.68030099  0.55106689  0.68821555  1 -0.028499
  C  C206  1  0.72370109  0.51932821  0.69382607  1 -0.162437
  C  C207  1  0.69833727  0.44799384  0.67300328  1 0.125573
  C  C208  1  0.62856944  0.40871356  0.64521713  1 -0.026767
  C  C209  1  0.58352451  0.43953982  0.64067653  1 0.116578
  C  C210  1  0.61003429  0.51072987  0.66268445  1 -0.160404
  C  C211  1  0.74589194  0.41482272  0.67961895  1 -0.409149
  C  C212  1  0.50864313  0.39777058  0.61173702  1 -0.413037
  C  C213  1  0.53254552  0.12332466  0.54403072  1 0.583305
  C  C214  1  0.55550017  0.19647821  0.57014866  1 -0.024366
  C  C215  1  0.58950330  0.25523686  0.55005854  1 -0.164692
  C  C216  1  0.61326069  0.32473672  0.57405650  1 0.124931
  C  C217  1  0.60282916  0.33475272  0.61928075  1 -0.029958
  C  C218  1  0.56740603  0.27562606  0.63966675  1 0.116253
  C  C219  1  0.54396929  0.20672514  0.61462930  1 -0.162848
  C  C220  1  0.65000821  0.38683624  0.55135614  1 -0.408685
  C  C221  1  0.55533021  0.28689867  0.68761892  1 -0.404831
  C  C222  1  0.81586815  0.89536076  0.76826908  1 0.582927
  C  C223  1  0.84601935  0.97182791  0.79065393  1 -0.029008
  C  C224  1  0.79948328  0.99685875  0.80196232  1 -0.166384
  C  C225  1  0.82618800  0.06678668  0.82608851  1 0.123787
  C  C226  1  0.90107922  0.11177874  0.83912782  1 -0.026593
  C  C227  1  0.94859572  0.08815039  0.82634414  1 0.121102
  C  C228  1  0.92016848  0.01778031  0.80211542  1 -0.16053
  C  C229  1  0.77539262  0.09265350  0.83856368  1 -0.40878
  C  C230  1  0.02832169  0.13750840  0.83938185  1 -0.416168
  C  C231  1  0.98527081  0.38560499  0.95229004  1 0.584298
  C  C232  1  0.96968307  0.31665973  0.92321022  1 -0.0235
  C  C233  1  0.96424520  0.30961726  0.87574725  1 -0.163435
  C  C234  1  0.94322562  0.24336075  0.84772445  1 0.121276
  C  C235  1  0.92903126  0.18415466  0.86817865  1 -0.025717
  C  C236  1  0.93720882  0.19136784  0.91617744  1 0.124087
  C  C237  1  0.95686073  0.25779844  0.94321386  1 -0.169028
  C  C238  1  0.93286743  0.23408189  0.79638794  1 -0.412678
  C  C239  1  0.92231900  0.12805959  0.93795956  1 -0.411471
  C  C240  1  0.74566099  0.76482382  0.31972803  1 0.583314
  C  C241  1  0.73987624  0.76647763  0.36858145  1 -0.023581
  C  C242  1  0.76979028  0.83215029  0.39973818  1 -0.163544
  C  C243  1  0.76875447  0.83426137  0.44619550  1 0.124684
  C  C244  1  0.73670742  0.76904016  0.46114309  1 -0.025682
  C  C245  1  0.70466263  0.70263397  0.42981576  1 0.116753
  C  C246  1  0.70690558  0.70225729  0.38357939  1 -0.165967
  C  C247  1  0.80210529  0.90468275  0.48010805  1 -0.411009
  C  C248  1  0.67076240  0.63264476  0.44533124  1 -0.409358
  C  C249  1  0.75691517  0.77515854  0.65461550  1 0.583021
  C  C250  1  0.75184840  0.77579453  0.60490965  1 -0.025771
  C  C251  1  0.80424245  0.77187743  0.58351633  1 -0.167655
  C  C252  1  0.79957783  0.76970626  0.53663942  1 0.122168
  C  C253  1  0.74091024  0.77137264  0.51108034  1 -0.032576
  C  C254  1  0.68803150  0.77598752  0.53231454  1 0.121218
  C  C255  1  0.69419304  0.77799195  0.57937501  1 -0.162504
  C  C256  1  0.85719992  0.76699813  0.51427436  1 -0.408783
  C  C257  1  0.62650257  0.77929112  0.50486039  1 -0.409083
  C  C258  1  0.37154893  0.29010932  0.79198347  1 0.58686
  C  C259  1  0.44893181  0.31970560  0.81179001  1 -0.028
  C  C260  1  0.48066987  0.27630545  0.80617940  1 -0.162857
  C  C261  1  0.55200483  0.30166990  0.82700159  1 0.12668
  C  C262  1  0.59128749  0.37143785  0.85478780  1 -0.030741
  C  C263  1  0.56045976  0.41648170  0.85932872  1 0.117638
  C  C264  1  0.48926847  0.38997153  0.83732158  1 -0.160582
  C  C265  1  0.58517818  0.25411704  0.82038547  1 -0.408705
  C  C266  1  0.60223282  0.49136375  0.88826789  1 -0.412704
  C  C267  1  0.87667709  0.46744604  0.95596822  1 0.583559
  C  C268  1  0.80352285  0.44450145  0.92985334  1 -0.024514
  C  C269  1  0.74476541  0.41050483  0.94994532  1 -0.164595
  C  C270  1  0.67526545  0.38674813  0.92594836  1 0.124922
  C  C271  1  0.66524916  0.39717867  0.88072344  1 -0.028798
  C  C272  1  0.72437439  0.43259995  0.86033615  1 0.11644
  C  C273  1  0.79327435  0.45603433  0.88537344  1 -0.163019
  C  C274  1  0.61316925  0.35000063  0.94865042  1 -0.408417
  C  C275  1  0.71310967  0.44467786  0.81238458  1 -0.404678
  C  C276  1  0.10465363  0.18413790  0.73173517  1 0.582732
  C  C277  1  0.02818841  0.15398679  0.70935276  1 -0.028835
  C  C278  1  0.00315426  0.20052146  0.69804775  1 -0.166467
  C  C279  1  0.93322505  0.17381445  0.67392200  1 0.123949
  C  C280  1  0.88823350  0.09892305  0.66087823  1 -0.026526
  C  C281  1  0.91186884  0.05140976  0.67365984  1 0.120663
  C  C282  1  0.98223920  0.07983769  0.69788878  1 -0.160253
  C  C283  1  0.90734950  0.22460576  0.66145097  1 -0.409044
  C  C284  1  0.86250923  0.97168484  0.66062109  1 -0.416051
  C  C285  1  0.61439858  0.01474573  0.54771330  1 0.584268
  C  C286  1  0.68334395  0.03032351  0.57679230  1 -0.023525
  C  C287  1  0.69038979  0.03575751  0.62425524  1 -0.163357
  C  C288  1  0.75664599  0.05677538  0.65227861  1 0.121301
  C  C289  1  0.81585386  0.07097019  0.63182638  1 -0.025642
  C  C290  1  0.80863603  0.06278977  0.58382680  1 0.123845
  C  C291  1  0.74220564  0.04314006  0.55679022  1 -0.168873
  C  C292  1  0.76591995  0.06713052  0.70361457  1 -0.412808
  C  C293  1  0.87194473  0.07767684  0.56204553  1 -0.411409
  C  C294  1  0.23517310  0.25433821  0.18026613  1 0.583332
  C  C295  1  0.23352222  0.26013043  0.13141139  1 -0.023764
  C  C296  1  0.16785091  0.23021822  0.10025074  1 -0.163689
  C  C297  1  0.16574095  0.23125466  0.05379307  1 0.125839
  C  C298  1  0.23096251  0.26330270  0.03884628  1 -0.028959
  C  C299  1  0.29736786  0.29534827  0.07017513  1 0.117852
  C  C300  1  0.29774286  0.29310301  0.11641172  1 -0.165816
  C  C301  1  0.09531897  0.19790133  0.01987773  1 -0.410901
  C  C302  1  0.36735769  0.32925092  0.05465849  1 -0.409226
  C  C303  1  0.22484516  0.24309696  0.84537624  1 0.583089
  C  C304  1  0.22420608  0.24816131  0.89507839  1 -0.025811
  C  C305  1  0.22812450  0.19576798  0.91647165  1 -0.167485
  C  C306  1  0.23029694  0.20043301  0.96334841  1 0.121926
  C  C307  1  0.22863111  0.25910056  0.98890759  1 -0.031508
  C  C308  1  0.22401683  0.31197955  0.96767284  1 0.120875
  C  C309  1  0.22201005  0.30581653  0.92061242  1 -0.162134
  C  C310  1  0.23300356  0.14280998  0.98571371  1 -0.408594
  C  C311  1  0.22071307  0.37350855  0.99512684  1 -0.408815
  C  C312  1  0.29011062  0.37155557  0.29198226  1 0.586492
  C  C313  1  0.31970952  0.44894510  0.31179111  1 -0.028136
  C  C314  1  0.27631357  0.48068976  0.30618294  1 -0.162716
  C  C315  1  0.30167825  0.55202493  0.32700795  1 0.126638
  C  C316  1  0.37144444  0.59130820  0.35479634  1 -0.031429
  C  C317  1  0.41648619  0.56047722  0.35933436  1 0.117578
  C  C318  1  0.38997653  0.48928623  0.33732420  1 -0.160379
  C  C319  1  0.25412543  0.58519988  0.32039148  1 -0.408508
  C  C320  1  0.49137002  0.60225193  0.38827403  1 -0.413065
  C  C321  1  0.46746495  0.87670096  0.45598827  1 0.583555
  C  C322  1  0.44451693  0.80354770  0.42986958  1 -0.024665
  C  C323  1  0.41051697  0.74478726  0.44995845  1 -0.164482
  C  C324  1  0.38675803  0.67528809  0.42595934  1 0.123797
  C  C325  1  0.39718655  0.66527162  0.38073407  1 -0.025636
  C  C326  1  0.43260935  0.72440030  0.36034944  1 0.115483
  C  C327  1  0.45604647  0.79330012  0.38538873  1 -0.162792
  C  C328  1  0.35000931  0.61318837  0.44865835  1 -0.408735
  C  C329  1  0.44468473  0.71313301  0.31239689  1 -0.405014
  C  C330  1  0.18412768  0.10463614  0.23172843  1 0.583084
  C  C331  1  0.15397341  0.02816397  0.20934056  1 -0.02944
  C  C332  1  0.20050551  0.00312704  0.19803130  1 -0.166485
  C  C333  1  0.17379869  0.93319827  0.17390267  1 0.123862
  C  C334  1  0.09890795  0.88820417  0.16085947  1 -0.026744
  C  C335  1  0.05139505  0.91183761  0.17364463  1 0.120935
  C  C336  1  0.07982313  0.98220821  0.19787611  1 -0.16005
  C  C337  1  0.22459026  0.90732401  0.16142711  1 -0.408945
  C  C338  1  0.97166876  0.86247451  0.16060736  1 -0.416149
  C  C339  1  0.01472359  0.61437484  0.04769220  1 0.583814
  C  C340  1  0.03030480  0.68331930  0.07677191  1 -0.023307
  C  C341  1  0.03574063  0.69036273  0.12423469  1 -0.163313
  C  C342  1  0.05675997  0.75661803  0.15225914  1 0.121023
  C  C343  1  0.07095598  0.81582652  0.13180673  1 -0.025384
  C  C344  1  0.06277589  0.80861158  0.08380762  1 0.124056
  C  C345  1  0.04312391  0.74218135  0.05677015  1 -0.169058
  C  C346  1  0.06711634  0.76589060  0.20359523  1 -0.412625
  C  C347  1  0.07766377  0.87191934  0.06202542  1 -0.411347
  C  C348  1  0.25434442  0.23517803  0.68028422  1 0.583035
  C  C349  1  0.26013247  0.23352767  0.63143573  1 -0.023452
  C  C350  1  0.23021679  0.16785514  0.60027950  1 -0.163997
  C  C351  1  0.23125293  0.16574380  0.55382287  1 0.127002
  C  C352  1  0.26330256  0.23096590  0.53887585  1 -0.02962
  C  C353  1  0.29535013  0.29737268  0.57020416  1 0.117928
  C  C354  1  0.29310548  0.29774864  0.61643967  1 -0.165955
  C  C355  1  0.19790027  0.09532152  0.51991122  1 -0.411298
  C  C356  1  0.32925101  0.36736345  0.55469002  1 -0.40917
  C  C357  1  0.24309178  0.22484707  0.34539263  1 0.582759
  C  C358  1  0.24815873  0.22420837  0.39510187  1 -0.02562
  C  C359  1  0.19576646  0.22812504  0.41649885  1 -0.167732
  C  C360  1  0.20043225  0.23029791  0.46337675  1 0.12235
  C  C361  1  0.25910000  0.22863321  0.48893745  1 -0.031977
  C  C362  1  0.31197752  0.22401909  0.46770131  1 0.12126
  C  C363  1  0.30581410  0.22201280  0.42064006  1 -0.162399
  C  C364  1  0.14281015  0.23300491  0.48574414  1 -0.408397
  C  C365  1  0.37350767  0.22071642  0.49515699  1 -0.408438
  C  C366  1  0.62844116  0.70989163  0.20801299  1 0.586786
  C  C367  1  0.55105746  0.68029832  0.18820153  1 -0.028116
  C  C368  1  0.51931845  0.72369764  0.19381236  1 -0.162711
  C  C369  1  0.44798515  0.69833579  0.17298812  1 0.126825
  C  C370  1  0.40870560  0.62857095  0.14519858  1 -0.031479
  C  C371  1  0.43953221  0.58352683  0.14065668  1 0.117781
  C  C372  1  0.51072144  0.61003497  0.16266638  1 -0.160554
  C  C373  1  0.41481503  0.74589104  0.17960740  1 -0.408637
  C  C374  1  0.39776340  0.50864479  0.11171679  1 -0.413013
  C  C375  1  0.12332178  0.53254206  0.04400696  1 0.583583
  C  C376  1  0.19647613  0.55549967  0.07012775  1 -0.024639
  C  C377  1  0.25523436  0.58950083  0.05003754  1 -0.164802
  C  C378  1  0.32473384  0.61326036  0.07403633  1 0.123694
  C  C379  1  0.33474717  0.60283200  0.11926161  1 -0.025726
  C  C380  1  0.27562228  0.56741341  0.13964993  1 0.115534
  C  C381  1  0.20672228  0.54397418  0.11461019  1 -0.162767
  C  C382  1  0.38683312  0.65000760  0.05133644  1 -0.408445
  C  C383  1  0.28689128  0.55534040  0.18760309  1 -0.404957
  C  C384  1  0.89535060  0.81584570  0.26826766  1 0.582844
  C  C385  1  0.97181603  0.84599556  0.29065591  1 -0.029057
  C  C386  1  0.99684903  0.79946126  0.30196388  1 -0.166261
  C  C387  1  0.06677587  0.82616716  0.32609326  1 0.123433
  C  C388  1  0.11176697  0.90105828  0.33913724  1 -0.026505
  C  C389  1  0.08813455  0.94857277  0.32635433  1 0.120973
  C  C390  1  0.01776624  0.92014501  0.30212233  1 -0.160507
  C  C391  1  0.09264311  0.77537106  0.33856653  1 -0.408583
  C  C392  1  0.13749079  0.02829855  0.33939406  1 -0.416223
  C  C393  1  0.38560576  0.98527075  0.45230932  1 0.583874
  C  C394  1  0.31665571  0.96967171  0.42322594  1 -0.02329
  C  C395  1  0.30960911  0.96422742  0.37576196  1 -0.163346
  C  C396  1  0.24335179  0.94320422  0.34773712  1 0.121042
  C  C397  1  0.18414449  0.92901169  0.36818963  1 -0.0254
  C  C398  1  0.19136147  0.93719675  0.41618913  1 0.123903
  C  C399  1  0.25779282  0.95685212  0.44322718  1 -0.169113
  C  C400  1  0.23407425  0.93284659  0.29640019  1 -0.412616
  C  C401  1  0.12805288  0.92231426  0.43796971  1 -0.41122
  C  C402  1  0.76482467  0.74566336  0.81972531  1 0.583193
  C  C403  1  0.76647346  0.73986895  0.86857663  1 -0.023677
  C  C404  1  0.83214583  0.76978140  0.89973410  1 -0.164137
  C  C405  1  0.83425536  0.76874291  0.94619056  1 0.126093
  C  C406  1  0.76903192  0.73669407  0.96113494  1 -0.026056
  C  C407  1  0.70262542  0.70464898  0.92980751  1 0.116939
  C  C408  1  0.70225061  0.70689446  0.88357173  1 -0.165977
  C  C409  1  0.90467637  0.80209489  0.98010348  1 -0.411259
  C  C410  1  0.63263558  0.67075071  0.94532268  1 -0.409378
  C  C411  1  0.77514535  0.75689832  0.15460991  1 0.582936
  C  C412  1  0.77578234  0.75183221  0.10490349  1 -0.025662
  C  C413  1  0.77186393  0.80422480  0.08350878  1 -0.167645
  C  C414  1  0.76969440  0.79956106  0.03663168  1 0.122292
  C  C415  1  0.77136210  0.74089541  0.01107178  1 -0.032808
  C  C416  1  0.77597718  0.68801814  0.03230775  1 0.121156
  C  C417  1  0.77798145  0.69417899  0.07936812  1 -0.162447
  C  C418  1  0.76698913  0.85718468  0.01426648  1 -0.408789
  C  C419  1  0.77928428  0.62649184  0.00485334  1 -0.40896
  O  O420  1  0.66555891  0.65250339  0.70726342  1 -0.520739
  O  O421  1  0.77773305  0.66553343  0.72349915  1 -0.525479
  O  O422  1  0.74765395  0.85607799  0.76104214  1 -0.526434
  O  O423  1  0.85996936  0.87389052  0.75883592  1 -0.524017
  O  O424  1  0.73274270  0.70508019  0.29559726  1 -0.52417
  O  O425  1  0.76422401  0.82335720  0.30568256  1 -0.518401
  O  O426  1  0.70549294  0.77403343  0.67230581  1 -0.520737
  O  O427  1  0.81208420  0.77472029  0.67591272  1 -0.528071
  O  O428  1  0.96708359  0.38267897  0.99124526  1 -0.525631
  O  O429  1  0.01405889  0.44209091  0.93589536  1 -0.519572
  O  O430  1  0.49426747  0.07042972  0.56140442  1 -0.51783
  O  O431  1  0.55355398  0.11886955  0.50632681  1 -0.525913
  O  O432  1  0.34749859  0.33444727  0.79274365  1 -0.520815
  O  O433  1  0.33447575  0.22227389  0.77650156  1 -0.525439
  O  O434  1  0.14393265  0.25235176  0.73895652  1 -0.526369
  O  O435  1  0.12612233  0.14003619  0.74117050  1 -0.523889
  O  O436  1  0.29490672  0.26722170  0.20439111  1 -0.524178
  O  O437  1  0.17664721  0.23580373  0.19431676  1 -0.518449
  O  O438  1  0.22596078  0.29451605  0.82768651  1 -0.52076
  O  O439  1  0.22529643  0.18793298  0.82408378  1 -0.528177
  O  O440  1  0.61732333  0.03293938  0.50875953  1 -0.525611
  O  O441  1  0.55790948  0.98595839  0.56410621  1 -0.51966
  O  O442  1  0.92957190  0.50572349  0.93859454  1 -0.517931
  O  O443  1  0.88113347  0.44643034  0.99366919  1 -0.526096
  O  O444  1  0.33444717  0.34750600  0.29272381  1 -0.520506
  O  O445  1  0.22227299  0.33447458  0.27651735  1 -0.525344
  O  O446  1  0.25234190  0.14391342  0.23896934  1 -0.526456
  O  O447  1  0.14002674  0.12611255  0.24114782  1 -0.523999
  O  O448  1  0.26725806  0.29492248  0.70441239  1 -0.524049
  O  O449  1  0.23578358  0.17664086  0.69432617  1 -0.518332
  O  O450  1  0.29452202  0.22599280  0.32770479  1 -0.520636
  O  O451  1  0.18791586  0.22526756  0.32409242  1 -0.52807
  O  O452  1  0.03291542  0.61730202  0.00873803  1 -0.52525
  O  O453  1  0.98593541  0.55788643  0.06408502  1 -0.519523
  O  O454  1  0.50574345  0.92959852  0.43861628  1 -0.518005
  O  O455  1  0.44644999  0.88115541  0.49369028  1 -0.525961
  O  O456  1  0.65249150  0.66555517  0.20725743  1 -0.520805
  O  O457  1  0.66552129  0.77772518  0.22349619  1 -0.525411
  O  O458  1  0.85606299  0.74763323  0.26104207  1 -0.526564
  O  O459  1  0.87388217  0.85994643  0.25882974  1 -0.523805
  O  O460  1  0.70508166  0.73275141  0.79559548  1 -0.524168
  O  O461  1  0.82336119  0.76422826  0.80568260  1 -0.518356
  O  O462  1  0.77402169  0.70547869  0.17230156  1 -0.520699
  O  O463  1  0.77470309  0.81206399  0.17590642  1 -0.528147
  O  O464  1  0.38268483  0.96709156  0.49126776  1 -0.525354
  O  O465  1  0.44209295  0.01406171  0.43591561  1 -0.519468
  O  O466  1  0.07042895  0.49426424  0.06138137  1 -0.517969
  O  O467  1  0.11886640  0.55354771  0.00630200  1 -0.525928
