# generated using pymatgen
data_CdH8C6N6Cl
_symmetry_space_group_name_H-M   'P 1'
_cell_length_a   18.84362975
_cell_length_b   7.59801986
_cell_length_c   13.84609677
_cell_angle_alpha   90.00000000
_cell_angle_beta   90.00000000
_cell_angle_gamma   90.00000000
_symmetry_Int_Tables_number   1
_chemical_formula_structural   CdH8C6N6Cl
_chemical_formula_sum   'Cd4 H32 C24 N24 Cl4'
_cell_volume   1982.40484114
_cell_formula_units_Z   4
loop_
 _symmetry_equiv_pos_site_id
 _symmetry_equiv_pos_as_xyz
  1  'x, y, z'
loop_
 _atom_site_type_symbol
 _atom_site_label
 _atom_site_symmetry_multiplicity
 _atom_site_fract_x
 _atom_site_fract_y
 _atom_site_fract_z
 _atom_site_occupancy
 _atom_site_charge
  Cd  Cd0  1  0.50000000  0.50000000  0.50000000  1 0.72413
  Cd  Cd1  1  0.00000000  0.50000000  -0.00000000  1 0.72413
  Cd  Cd2  1  0.50000000  -0.00000000  0.50000000  1 0.72413
  Cd  Cd3  1  0.00000000  -0.00000000  -0.00000000  1 0.72413
  H  H4  1  0.69533522  0.36716935  0.16387154  1 0.053395
  H  H5  1  0.78278471  0.36726273  0.30187764  1 0.044183
  H  H6  1  0.62928868  0.53045337  0.31107882  1 0.092668
  H  H7  1  0.85100518  0.53047548  0.15789800  1 0.092421
  H  H8  1  0.80466478  0.63283065  0.66387154  1 0.053395
  H  H9  1  0.71721529  0.63273727  0.80187764  1 0.044183
  H  H10  1  0.87071132  0.46954663  0.81107882  1 0.092668
  H  H11  1  0.64899482  0.46952452  0.65789800  1 0.092421
  H  H12  1  0.30466478  0.86716935  0.83612846  1 0.053395
  H  H13  1  0.21721529  0.86726273  0.69812236  1 0.044183
  H  H14  1  0.37071132  0.03045337  0.68892118  1 0.092668
  H  H15  1  0.14899482  0.03047548  0.84210200  1 0.092421
  H  H16  1  0.19533522  0.13283065  0.33612846  1 0.053395
  H  H17  1  0.28278471  0.13273727  0.19812236  1 0.044183
  H  H18  1  0.12928868  0.96954663  0.18892118  1 0.092668
  H  H19  1  0.35100518  0.96952452  0.34210200  1 0.092421
  H  H20  1  0.30466478  0.63283065  0.83612846  1 0.053396
  H  H21  1  0.21721529  0.63273727  0.69812236  1 0.044184
  H  H22  1  0.37071132  0.46954663  0.68892118  1 0.092669
  H  H23  1  0.14899482  0.46952452  0.84210200  1 0.092422
  H  H24  1  0.19533522  0.36716935  0.33612846  1 0.053396
  H  H25  1  0.28278471  0.36726273  0.19812236  1 0.044184
  H  H26  1  0.12928868  0.53045337  0.18892118  1 0.092669
  H  H27  1  0.35100518  0.53047548  0.34210200  1 0.092422
  H  H28  1  0.69533522  0.13283065  0.16387154  1 0.053396
  H  H29  1  0.78278471  0.13273727  0.30187764  1 0.044184
  H  H30  1  0.62928868  0.96954663  0.31107882  1 0.092669
  H  H31  1  0.85100518  0.96952452  0.15789800  1 0.092422
  H  H32  1  0.80466478  0.86716935  0.66387154  1 0.053396
  H  H33  1  0.71721529  0.86726273  0.80187764  1 0.044184
  H  H34  1  0.87071132  0.03045337  0.81107882  1 0.092669
  H  H35  1  0.64899482  0.03047548  0.65789800  1 0.092422
  C  C36  1  0.62131796  0.39452938  0.33179768  1 0.018265
  C  C37  1  0.86031985  0.39459050  0.13799692  1 0.017443
  C  C38  1  0.87868204  0.60547062  0.83179768  1 0.018265
  C  C39  1  0.63968015  0.60540950  0.63799692  1 0.017443
  C  C40  1  0.37868204  0.89452938  0.66820232  1 0.018265
  C  C41  1  0.13968015  0.89459050  0.86200308  1 0.017443
  C  C42  1  0.12131796  0.10547062  0.16820232  1 0.018265
  C  C43  1  0.36031985  0.10540950  0.36200308  1 0.017443
  C  C44  1  0.37868204  0.60547062  0.66820232  1 0.01826
  C  C45  1  0.13968015  0.60540950  0.86200308  1 0.017439
  C  C46  1  0.12131796  0.39452938  0.16820232  1 0.01826
  C  C47  1  0.36031985  0.39459050  0.36200308  1 0.01744
  C  C48  1  0.62131796  0.10547062  0.33179768  1 0.01826
  C  C49  1  0.86031985  0.10540950  0.13799692  1 0.017439
  C  C50  1  0.87868204  0.89452938  0.83179768  1 0.01826
  C  C51  1  0.63968015  0.89459050  0.63799692  1 0.01744
  C  C52  1  0.70183401  0.25000000  0.20999161  1 -0.064984
  C  C53  1  0.77648013  0.25000000  0.25562514  1 -0.059051
  C  C54  1  0.79816599  0.75000000  0.70999161  1 -0.064984
  C  C55  1  0.72351987  0.75000000  0.75562514  1 -0.059051
  C  C56  1  0.29816599  0.75000000  0.79000839  1 -0.064984
  C  C57  1  0.22351987  0.75000000  0.74437486  1 -0.059051
  C  C58  1  0.20183401  0.25000000  0.29000839  1 -0.064984
  C  C59  1  0.27648013  0.25000000  0.24437486  1 -0.059051
  N  N60  1  0.57854846  0.33932224  0.40180486  1 -0.177248
  N  N61  1  0.90746315  0.33940968  0.07334833  1 -0.181889
  N  N62  1  0.92145154  0.66067776  0.90180486  1 -0.177248
  N  N63  1  0.59253685  0.66059032  0.57334833  1 -0.181889
  N  N64  1  0.42145154  0.83932224  0.59819514  1 -0.177248
  N  N65  1  0.09253685  0.83940968  0.92665167  1 -0.181889
  N  N66  1  0.07854846  0.16067776  0.09819514  1 -0.177248
  N  N67  1  0.40746315  0.16059032  0.42665167  1 -0.181889
  N  N68  1  0.42145154  0.66067776  0.59819514  1 -0.177211
  N  N69  1  0.09253685  0.66059032  0.92665167  1 -0.181855
  N  N70  1  0.07854846  0.33932224  0.09819514  1 -0.177211
  N  N71  1  0.40746315  0.33940968  0.42665167  1 -0.181855
  N  N72  1  0.57854846  0.16067776  0.40180486  1 -0.177211
  N  N73  1  0.90746315  0.16059032  0.07334833  1 -0.181855
  N  N74  1  0.92145154  0.83932224  0.90180486  1 -0.177211
  N  N75  1  0.59253685  0.83940968  0.57334833  1 -0.181855
  N  N76  1  0.64765139  0.25000000  0.28265509  1 0.009003
  N  N77  1  0.83085546  0.25000000  0.18348375  1 0.012294
  N  N78  1  0.85234861  0.75000000  0.78265509  1 0.009003
  N  N79  1  0.66914454  0.75000000  0.68348375  1 0.012294
  N  N80  1  0.35234861  0.75000000  0.71734491  1 0.009003
  N  N81  1  0.16914454  0.75000000  0.81651625  1 0.012294
  N  N82  1  0.14765139  0.25000000  0.21734491  1 0.009003
  N  N83  1  0.33085546  0.25000000  0.31651625  1 0.012294
  Cl  Cl84  1  0.51114970  0.25000000  0.63446691  1 -0.539935
  Cl  Cl85  1  0.98885030  0.75000000  0.13446691  1 -0.539935
  Cl  Cl86  1  0.48885030  0.75000000  0.36553309  1 -0.539935
  Cl  Cl87  1  0.01114970  0.25000000  0.86553309  1 -0.539935
