# generated using pymatgen
data_CuH2(C3O2)2
_symmetry_space_group_name_H-M   'P 1'
_cell_length_a   18.69265843
_cell_length_b   18.69300732
_cell_length_c   18.69271049
_cell_angle_alpha   59.99963900
_cell_angle_beta   60.00059757
_cell_angle_gamma   59.99915134
_symmetry_Int_Tables_number   1
_chemical_formula_structural   CuH2(C3O2)2
_chemical_formula_sum   'Cu12 H24 C72 O48'
_cell_volume   4618.54860968
_cell_formula_units_Z   12
loop_
 _symmetry_equiv_pos_site_id
 _symmetry_equiv_pos_as_xyz
  1  'x, y, z'
loop_
 _atom_site_type_symbol
 _atom_site_label
 _atom_site_symmetry_multiplicity
 _atom_site_fract_x
 _atom_site_fract_y
 _atom_site_fract_z
 _atom_site_occupancy
 _atom_site_charge
  Cu  Cu0  1  0.06565085  0.49999805  0.93435175  1 0.83473
  Cu  Cu1  1  0.50000246  0.06563962  0.49999760  1 0.834185
  Cu  Cu2  1  0.93439078  0.50000080  0.06560924  1 0.833657
  Cu  Cu3  1  0.49999913  0.93434059  0.50000197  1 0.835288
  Cu  Cu4  1  0.06565383  0.93434884  0.49999772  1 0.834043
  Cu  Cu5  1  0.49999992  0.50000074  0.93434019  1 0.83483
  Cu  Cu6  1  0.93438250  0.06561639  0.50000134  1 0.834747
  Cu  Cu7  1  0.50000167  0.49999907  0.06563800  1 0.834556
  Cu  Cu8  1  0.06565992  0.49999873  0.49999985  1 0.834194
  Cu  Cu9  1  0.49999907  0.93435971  0.06563950  1 0.835559
  Cu  Cu10  1  0.93435958  0.50000000  0.49999919  1 0.834742
  Cu  Cu11  1  0.50000223  0.06566144  0.93433828  1 0.831046
  H  H12  1  0.76733658  0.46748551  0.99782944  1 0.13335
  H  H13  1  0.46748577  0.76734726  0.76734565  1 0.133379
  H  H14  1  0.99783590  0.76733821  0.76734026  1 0.133396
  H  H15  1  0.76733469  0.99782972  0.46748538  1 0.133488
  H  H16  1  0.76733596  0.99782705  0.76735189  1 0.133361
  H  H17  1  0.46748570  0.76734416  0.99782622  1 0.133489
  H  H18  1  0.99783229  0.76734146  0.46748549  1 0.133299
  H  H19  1  0.76734292  0.46748550  0.76734719  1 0.133343
  H  H20  1  0.76734200  0.76734856  0.46748550  1 0.133364
  H  H21  1  0.46748557  0.99782576  0.76734389  1 0.133396
  H  H22  1  0.99782933  0.46748544  0.76734411  1 0.13338
  H  H23  1  0.76733638  0.76734979  0.99782856  1 0.133475
  H  H24  1  0.53251455  0.23265601  0.00217483  1 0.133328
  H  H25  1  0.23265523  0.53251461  0.23265487  1 0.133236
  H  H26  1  0.23265698  0.00217080  0.23265780  1 0.133432
  H  H27  1  0.00216648  0.23266522  0.53251474  1 0.133479
  H  H28  1  0.00216976  0.23265864  0.23265675  1 0.133381
  H  H29  1  0.23265571  0.53251436  0.00217397  1 0.133436
  H  H30  1  0.23265859  0.00217240  0.53251435  1 0.133371
  H  H31  1  0.53251450  0.23265439  0.23265574  1 0.133386
  H  H32  1  0.23265606  0.23265393  0.53251461  1 0.133277
  H  H33  1  0.00216789  0.53251468  0.23266366  1 0.133367
  H  H34  1  0.53251461  0.00217614  0.23265625  1 0.133522
  H  H35  1  0.23265444  0.23265667  0.00217441  1 0.133319
  C  C36  1  0.80138192  0.46609793  0.93110872  1 -0.070572
  C  C37  1  0.46609821  0.80140185  0.80140254  1 -0.070784
  C  C38  1  0.93110301  0.80140007  0.80139864  1 -0.070842
  C  C39  1  0.80138483  0.93110703  0.46609779  1 -0.070636
  C  C40  1  0.80138089  0.93110388  0.80141727  1 -0.070587
  C  C41  1  0.46609842  0.80139947  0.93110199  1 -0.070759
  C  C42  1  0.93110181  0.80139636  0.46609826  1 -0.070784
  C  C43  1  0.80140096  0.46609815  0.80140279  1 -0.07072
  C  C44  1  0.80140085  0.80140336  0.46609799  1 -0.070786
  C  C45  1  0.46609858  0.93109888  0.80140350  1 -0.070635
  C  C46  1  0.93110057  0.46609812  0.80139707  1 -0.07067
  C  C47  1  0.80137792  0.80141607  0.93110780  1 -0.070754
  C  C48  1  0.53390184  0.19859915  0.06890091  1 -0.070587
  C  C49  1  0.19859150  0.53390185  0.19860514  1 -0.070818
  C  C50  1  0.19859631  0.06890015  0.19860153  1 -0.070766
  C  C51  1  0.06889133  0.19861870  0.53390141  1 -0.070611
  C  C52  1  0.06888714  0.19860292  0.19860811  1 -0.070444
  C  C53  1  0.19859982  0.53390218  0.06890005  1 -0.070717
  C  C54  1  0.19860037  0.06889998  0.53390246  1 -0.070833
  C  C55  1  0.53390220  0.19859771  0.19859911  1 -0.07073
  C  C56  1  0.19859229  0.19860329  0.53390216  1 -0.070816
  C  C57  1  0.06889135  0.53390161  0.19862166  1 -0.070683
  C  C58  1  0.53390160  0.06889949  0.19860294  1 -0.070937
  C  C59  1  0.19859730  0.19859757  0.06890313  1 -0.070526
  C  C60  1  0.88768548  0.46641670  0.88770818  1 -0.034416
  C  C61  1  0.93119664  0.47417918  0.93114055  1 0.582055
  C  C62  1  0.46641447  0.88771427  0.75816083  1 -0.03424
  C  C63  1  0.47418394  0.93116975  0.66345717  1 0.582064
  C  C64  1  0.88768330  0.75819723  0.88770269  1 -0.034342
  C  C65  1  0.93120201  0.66348044  0.93113861  1 0.582227
  C  C66  1  0.75815232  0.88771712  0.46641465  1 -0.034091
  C  C67  1  0.66345362  0.93117016  0.47418357  1 0.582184
  C  C68  1  0.88768505  0.88770590  0.75819185  1 -0.034352
  C  C69  1  0.93119020  0.93115215  0.66347806  1 0.582215
  C  C70  1  0.46641420  0.75816431  0.88771267  1 -0.034142
  C  C71  1  0.47418438  0.66345409  0.93117511  1 0.582396
  C  C72  1  0.88769042  0.88770887  0.46641681  1 -0.034235
  C  C73  1  0.93118578  0.93115496  0.47417998  1 0.582039
  C  C74  1  0.75815814  0.46641403  0.88771289  1 -0.034036
  C  C75  1  0.66345110  0.47418399  0.93117512  1 0.582251
  C  C76  1  0.88771405  0.75816000  0.46641522  1 -0.034081
  C  C77  1  0.93118849  0.66345755  0.47418391  1 0.582278
  C  C78  1  0.46641435  0.88770949  0.88771554  1 -0.033873
  C  C79  1  0.47418441  0.93118266  0.93118022  1 0.58203
  C  C80  1  0.88771184  0.46641524  0.75816062  1 -0.034255
  C  C81  1  0.93118704  0.47418363  0.66345833  1 0.582236
  C  C82  1  0.75814834  0.88771880  0.88771795  1 -0.033791
  C  C83  1  0.66344695  0.93118553  0.93118363  1 0.582087
  C  C84  1  0.53358613  0.11228862  0.11228917  1 -0.03396
  C  C85  1  0.52581583  0.06882024  0.06881763  1 0.582001
  C  C86  1  0.11228256  0.53358451  0.24185103  1 -0.033984
  C  C87  1  0.06882762  0.52581601  0.33654380  1 0.582253
  C  C88  1  0.24183246  0.11228956  0.11229278  1 -0.034098
  C  C89  1  0.33655063  0.06881804  0.06881533  1 0.581833
  C  C90  1  0.11228065  0.24185084  0.53358433  1 -0.033949
  C  C91  1  0.06882636  0.33654407  0.52581597  1 0.58222
  C  C92  1  0.11228879  0.11230957  0.24181925  1 -0.034127
  C  C93  1  0.06884258  0.06881300  0.33652484  1 0.581962
  C  C94  1  0.24183036  0.53358644  0.11229198  1 -0.034003
  C  C95  1  0.33654700  0.52581622  0.06881108  1 0.581946
  C  C96  1  0.11228823  0.11231300  0.53358274  1 -0.034203
  C  C97  1  0.06884288  0.06881686  0.52582022  1 0.582062
  C  C98  1  0.53358627  0.24183607  0.11228951  1 -0.034156
  C  C99  1  0.52581603  0.33654627  0.06881120  1 0.58235
  C  C100  1  0.24183706  0.11228844  0.53358619  1 -0.034147
  C  C101  1  0.33654511  0.06880750  0.52581670  1 0.582209
  C  C102  1  0.11229130  0.53358219  0.11231592  1 -0.034365
  C  C103  1  0.06885914  0.52582095  0.06880414  1 0.582085
  C  C104  1  0.53358589  0.11228974  0.24184154  1 -0.034111
  C  C105  1  0.52581640  0.06880862  0.33654328  1 0.582228
  C  C106  1  0.11229100  0.24181284  0.11231433  1 -0.034279
  C  C107  1  0.06885763  0.33651967  0.06880258  1 0.582083
  O  O108  1  0.00845413  0.47842134  0.88634438  1 -0.513726
  O  O109  1  0.47844041  0.00847274  0.62672170  1 -0.513753
  O  O110  1  0.88633561  0.62680460  0.00844275  1 -0.513698
  O  O111  1  0.62673408  0.88636638  0.47843813  1 -0.513951
  O  O112  1  0.00846104  0.88633549  0.62678081  1 -0.513826
  O  O113  1  0.47843660  0.62672917  0.88637479  1 -0.514117
  O  O114  1  0.88634929  0.00844994  0.47842295  1 -0.513984
  O  O115  1  0.62673146  0.47843841  0.00846401  1 -0.514034
  O  O116  1  0.00846088  0.62673069  0.47843774  1 -0.513894
  O  O117  1  0.47843881  0.88636926  0.00846741  1 -0.513736
  O  O118  1  0.88636889  0.47843807  0.62672635  1 -0.514293
  O  O119  1  0.62673882  0.00846389  0.88636328  1 -0.514004
  O  O120  1  0.52156113  0.99153373  0.11363122  1 -0.51393
  O  O121  1  0.99153076  0.52156049  0.37327556  1 -0.514181
  O  O122  1  0.37325848  0.11363906  0.99153875  1 -0.513967
  O  O123  1  0.11362674  0.37326718  0.52156380  1 -0.513866
  O  O124  1  0.11366304  0.99154195  0.37321778  1 -0.513651
  O  O125  1  0.37326840  0.52156192  0.11363205  1 -0.514025
  O  O126  1  0.99154610  0.11364913  0.52157972  1 -0.514063
  O  O127  1  0.52156251  0.37327312  0.99153870  1 -0.514031
  O  O128  1  0.37326455  0.99153664  0.52156374  1 -0.513999
  O  O129  1  0.11365456  0.52158116  0.99154656  1 -0.513735
  O  O130  1  0.52155932  0.11363429  0.37327744  1 -0.513785
  O  O131  1  0.99155110  0.37320289  0.11366274  1 -0.513748
  O  O132  1  0.99154690  0.52158370  0.11366010  1 -0.513687
  O  O133  1  0.52156253  0.99153763  0.37326961  1 -0.514049
  O  O134  1  0.11365820  0.37321179  0.99154909  1 -0.513538
  O  O135  1  0.37327149  0.11363920  0.52155950  1 -0.513767
  O  O136  1  0.99155192  0.11365227  0.37321584  1 -0.514055
  O  O137  1  0.52156148  0.37327521  0.11362725  1 -0.514174
  O  O138  1  0.11365937  0.99154270  0.52157675  1 -0.513737
  O  O139  1  0.37326502  0.52156394  0.99153943  1 -0.513937
  O  O140  1  0.99152915  0.37327791  0.52156043  1 -0.514161
  O  O141  1  0.52156239  0.11363164  0.99153538  1 -0.514021
  O  O142  1  0.11362675  0.52156349  0.37326840  1 -0.513943
  O  O143  1  0.37326437  0.99153431  0.11363870  1 -0.513758
  O  O144  1  0.47843631  0.00846493  0.88636913  1 -0.514092
  O  O145  1  0.00845983  0.47843739  0.62673255  1 -0.513874
  O  O146  1  0.62673431  0.88636141  0.00846575  1 -0.513856
  O  O147  1  0.88636862  0.62672762  0.47843819  1 -0.514295
  O  O148  1  0.88634754  0.00844238  0.62679021  1 -0.513961
  O  O149  1  0.62673245  0.47843586  0.88637106  1 -0.514058
  O  O150  1  0.00846070  0.88634082  0.47842324  1 -0.513745
  O  O151  1  0.47843990  0.62672298  0.00846510  1 -0.514175
  O  O152  1  0.62672719  0.00847333  0.47843904  1 -0.513759
  O  O153  1  0.88633825  0.47842050  0.00844985  1 -0.513664
  O  O154  1  0.47843850  0.88637004  0.62673095  1 -0.513862
  O  O155  1  0.00845479  0.62678607  0.88633924  1 -0.513724
