# generated using pymatgen
data_CuH2C7O6
_symmetry_space_group_name_H-M   'P 1'
_cell_length_a   8.54302714
_cell_length_b   11.37913572
_cell_length_c   13.93974887
_cell_angle_alpha   89.99997032
_cell_angle_beta   112.70273110
_cell_angle_gamma   89.99959169
_symmetry_Int_Tables_number   1
_chemical_formula_structural   CuH2C7O6
_chemical_formula_sum   'Cu4 H8 C28 O24'
_cell_volume   1250.11987371
_cell_formula_units_Z   4
loop_
 _symmetry_equiv_pos_site_id
 _symmetry_equiv_pos_as_xyz
  1  'x, y, z'
loop_
 _atom_site_type_symbol
 _atom_site_label
 _atom_site_symmetry_multiplicity
 _atom_site_fract_x
 _atom_site_fract_y
 _atom_site_fract_z
 _atom_site_occupancy
 _atom_site_charge
  Cu  Cu0  1  0.61222311  0.41378977  0.52967817  1 0.849837
  Cu  Cu1  1  0.38777929  0.91378964  0.97032551  1 0.849891
  Cu  Cu2  1  0.38768136  0.58617170  0.47029209  1 0.848773
  Cu  Cu3  1  0.61232499  0.08618020  0.02970746  1 0.848722
  H  H4  1  0.01773546  0.59281979  0.46902620  1 0.166561
  H  H5  1  0.02235571  0.87523701  0.25827914  1 0.170735
  H  H6  1  0.98226448  0.09281923  0.03097466  1 0.16659
  H  H7  1  0.97764746  0.37523940  0.24172156  1 0.170727
  H  H8  1  0.98225310  0.40718065  0.53097402  1 0.16651
  H  H9  1  0.97764597  0.12475922  0.74172282  1 0.17071
  H  H10  1  0.01774367  0.90718319  0.96902298  1 0.166513
  H  H11  1  0.02235085  0.62475886  0.75827835  1 0.17073
  C  C12  1  0.95459933  0.65511251  0.40694039  1 -0.288919
  C  C13  1  0.78270236  0.66291015  0.36600839  1 0.177255
  C  C14  1  0.78569824  0.81066535  0.25122569  1 0.177737
  C  C15  1  0.95788692  0.81316257  0.28987364  1 -0.28021
  C  C16  1  0.05546244  0.73154201  0.37055391  1 0.451829
  C  C17  1  0.67094845  0.59716011  0.40834934  1 0.534115
  C  C18  1  0.67473287  0.88315163  0.16042188  1 0.536746
  C  C19  1  0.04540448  0.15511244  0.09306060  1 -0.288886
  C  C20  1  0.21729907  0.16291085  0.13399293  1 0.177238
  C  C21  1  0.21430159  0.31066560  0.24877439  1 0.177738
  C  C22  1  0.04210999  0.31316236  0.21012468  1 -0.280181
  C  C23  1  0.94453718  0.23154772  0.12944872  1 0.451743
  C  C24  1  0.32904843  0.09716179  0.09165095  1 0.534207
  C  C25  1  0.32526845  0.38315303  0.33958000  1 0.53665
  C  C26  1  0.04536896  0.34490176  0.59306445  1 -0.28875
  C  C27  1  0.21726501  0.33711654  0.63394580  1 0.176986
  C  C28  1  0.21430951  0.18937247  0.74874105  1 0.177357
  C  C29  1  0.04211575  0.18684694  0.71011909  1 -0.279964
  C  C30  1  0.94453463  0.26846568  0.62943034  1 0.451477
  C  C31  1  0.32908207  0.40277638  0.59162658  1 0.534406
  C  C32  1  0.32519726  0.11674858  0.83953935  1 0.536727
  C  C33  1  0.95462607  0.84490433  0.90693350  1 -0.288762
  C  C34  1  0.78273265  0.83711895  0.86605367  1 0.176953
  C  C35  1  0.78568911  0.68937206  0.75125776  1 0.177247
  C  C36  1  0.95788582  0.68684974  0.78988309  1 -0.279937
  C  C37  1  0.05546246  0.76846321  0.87056523  1 0.451427
  C  C38  1  0.67092019  0.90277762  0.90837269  1 0.534414
  C  C39  1  0.67480274  0.61674446  0.66046041  1 0.536726
  O  O40  1  0.69575796  0.73751275  0.28762117  1 -0.078385
  O  O41  1  0.21492625  0.72922766  0.40589266  1 -0.446154
  O  O42  1  0.72934188  0.49900964  0.45079012  1 -0.507693
  O  O43  1  0.53616456  0.64946064  0.40111716  1 -0.473791
  O  O44  1  0.53652709  0.83577549  0.10234794  1 -0.480723
  O  O45  1  0.73607900  0.98225055  0.15136044  1 -0.508389
  O  O46  1  0.30424360  0.23751337  0.21237724  1 -0.078344
  O  O47  1  0.78507369  0.22923016  0.09410667  1 -0.446099
  O  O48  1  0.27065308  0.99900577  0.04921270  1 -0.507755
  O  O49  1  0.46382940  0.14946796  0.09887813  1 -0.473842
  O  O50  1  0.46346969  0.33578038  0.39765536  1 -0.480668
  O  O51  1  0.26392719  0.48225093  0.34863936  1 -0.508333
  O  O52  1  0.30421277  0.26253139  0.71233594  1 -0.077876
  O  O53  1  0.78505296  0.27079047  0.59411357  1 -0.446228
  O  O54  1  0.27063386  0.50099593  0.54931534  1 -0.507712
  O  O55  1  0.46394179  0.35059274  0.59890384  1 -0.473996
  O  O56  1  0.46331307  0.16426308  0.89758324  1 -0.480721
  O  O57  1  0.26392362  0.01768233  0.84872707  1 -0.508289
  O  O58  1  0.69578760  0.76253271  0.78766515  1 -0.077791
  O  O59  1  0.21494402  0.77079164  0.90588361  1 -0.446205
  O  O60  1  0.72937014  0.00100384  0.95067879  1 -0.507645
  O  O61  1  0.53606476  0.85058733  0.90110259  1 -0.474082
  O  O62  1  0.53668959  0.66425596  0.60241464  1 -0.480728
  O  O63  1  0.73607493  0.51768177  0.65127580  1 -0.508217
