# generated using pymatgen
data_CuH6(C5N2)2
_symmetry_space_group_name_H-M   'P 1'
_cell_length_a   18.87122593
_cell_length_b   18.86988499
_cell_length_c   18.87228703
_cell_angle_alpha   90.00001630
_cell_angle_beta   89.99998340
_cell_angle_gamma   90.00003201
_symmetry_Int_Tables_number   1
_chemical_formula_structural   CuH6(C5N2)2
_chemical_formula_sum   'Cu12 H72 C120 N48'
_cell_volume   6720.38107856
_cell_formula_units_Z   12
loop_
 _symmetry_equiv_pos_site_id
 _symmetry_equiv_pos_as_xyz
  1  'x, y, z'
loop_
 _atom_site_type_symbol
 _atom_site_label
 _atom_site_symmetry_multiplicity
 _atom_site_fract_x
 _atom_site_fract_y
 _atom_site_fract_z
 _atom_site_occupancy
 _atom_site_charge
  Cu  Cu0  1  0.99999973  0.62607279  0.49999844  1 0.535395
  Cu  Cu1  1  0.99999962  0.37392975  0.49999851  1 0.516241
  Cu  Cu2  1  0.49999982  0.00000014  0.62607251  1 0.521554
  Cu  Cu3  1  0.49999989  0.00000013  0.37393134  1 0.527314
  Cu  Cu4  1  0.62607010  0.50000056  0.00000010  1 0.50845
  Cu  Cu5  1  0.37393903  0.49999762  0.00000009  1 0.513393
  Cu  Cu6  1  0.62607195  0.00000021  0.49999851  1 0.510052
  Cu  Cu7  1  0.37392794  0.00000007  0.49999861  1 0.516976
  Cu  Cu8  1  0.99999966  0.49999711  0.37392991  1 0.520448
  Cu  Cu9  1  0.99999967  0.49999704  0.62606906  1 0.53405
  Cu  Cu10  1  0.49999794  0.62606595  0.00000008  1 0.53477
  Cu  Cu11  1  0.49999514  0.37393606  0.00000008  1 0.544615
  H  H12  1  0.86426396  0.71709507  0.55533198  1 0.095815
  H  H13  1  0.13573532  0.28290522  0.55533160  1 0.095719
  H  H14  1  0.13573628  0.71709612  0.44466843  1 0.095535
  H  H15  1  0.86426430  0.28290432  0.44466871  1 0.095269
  H  H16  1  0.55533380  0.86426504  0.71709260  1 0.095821
  H  H17  1  0.55533370  0.13573456  0.28290778  1 0.095315
  H  H18  1  0.44466610  0.13573514  0.71709254  1 0.095588
  H  H19  1  0.44466618  0.86426534  0.28290779  1 0.095113
  H  H20  1  0.71709287  0.55533279  0.86426578  1 0.096275
  H  H21  1  0.28290800  0.55533287  0.13573334  1 0.096485
  H  H22  1  0.71709256  0.44466675  0.13573428  1 0.096454
  H  H23  1  0.28290925  0.44466756  0.86426827  1 0.096518
  H  H24  1  0.71709226  0.86426539  0.44466631  1 0.095427
  H  H25  1  0.28290790  0.13573494  0.44466591  1 0.095377
  H  H26  1  0.71709241  0.13573524  0.55533411  1 0.096187
  H  H27  1  0.28290750  0.86426462  0.55533422  1 0.096137
  H  H28  1  0.86426522  0.55533296  0.28290732  1 0.095503
  H  H29  1  0.13573455  0.55533350  0.71709205  1 0.095605
  H  H30  1  0.13573400  0.44466734  0.28290746  1 0.095269
  H  H31  1  0.86426605  0.44466670  0.71709175  1 0.09564
  H  H32  1  0.55533151  0.71709572  0.13573559  1 0.096037
  H  H33  1  0.55533141  0.28290353  0.86426398  1 0.095922
  H  H34  1  0.44466917  0.71709559  0.86426540  1 0.096243
  H  H35  1  0.44467020  0.28290455  0.13573363  1 0.096379
  H  H36  1  0.13573566  0.28290419  0.44466877  1 0.095296
  H  H37  1  0.86426363  0.71709609  0.44466838  1 0.095538
  H  H38  1  0.86426464  0.28290535  0.55533166  1 0.095691
  H  H39  1  0.13573596  0.71709509  0.55533194  1 0.09581
  H  H40  1  0.44466615  0.13573470  0.28290790  1 0.095109
  H  H41  1  0.44466613  0.86426490  0.71709264  1 0.095623
  H  H42  1  0.55533361  0.86426551  0.28290770  1 0.095362
  H  H43  1  0.55533390  0.13573504  0.71709252  1 0.09582
  H  H44  1  0.28290918  0.44466757  0.13573183  1 0.09656
  H  H45  1  0.71709251  0.44466674  0.86426581  1 0.096455
  H  H46  1  0.28290806  0.55533289  0.86426675  1 0.096447
  H  H47  1  0.71709290  0.55533279  0.13573430  1 0.096305
  H  H48  1  0.28290750  0.13573549  0.55533427  1 0.096153
  H  H49  1  0.71709254  0.86426481  0.55533401  1 0.096186
  H  H50  1  0.28290789  0.86426517  0.44466596  1 0.095374
  H  H51  1  0.71709213  0.13573467  0.44466621  1 0.095444
  H  H52  1  0.13573383  0.44466677  0.71709180  1 0.095574
  H  H53  1  0.86426589  0.44466727  0.28290751  1 0.09534
  H  H54  1  0.86426537  0.55533352  0.71709198  1 0.095642
  H  H55  1  0.13573472  0.55533293  0.28290723  1 0.095457
  H  H56  1  0.44467019  0.28290451  0.86426641  1 0.096241
  H  H57  1  0.44466919  0.71709556  0.13573464  1 0.096407
  H  H58  1  0.55533140  0.28290357  0.13573605  1 0.09606
  H  H59  1  0.55533152  0.71709575  0.86426445  1 0.095896
  H  H60  1  0.76798313  0.76798328  0.60695743  1 0.095682
  H  H61  1  0.23201697  0.23201699  0.60695785  1 0.095765
  H  H62  1  0.23201676  0.76798326  0.39304256  1 0.095586
  H  H63  1  0.76798316  0.23201693  0.39304243  1 0.09542
  H  H64  1  0.60695651  0.76798407  0.76798330  1 0.094993
  H  H65  1  0.60695659  0.23201610  0.23201672  1 0.095077
  H  H66  1  0.39304344  0.23201597  0.76798323  1 0.095069
  H  H67  1  0.39304368  0.76798408  0.23201658  1 0.095056
  H  H68  1  0.76798403  0.60695615  0.76798360  1 0.095347
  H  H69  1  0.23201585  0.60695622  0.23201653  1 0.09506
  H  H70  1  0.76798390  0.39304347  0.23201663  1 0.095172
  H  H71  1  0.23201589  0.39304377  0.76798353  1 0.095273
  H  H72  1  0.76798319  0.76798325  0.39304258  1 0.095485
  H  H73  1  0.23201687  0.23201700  0.39304221  1 0.095513
  H  H74  1  0.76798307  0.23201691  0.60695762  1 0.095679
  H  H75  1  0.23201684  0.76798328  0.60695747  1 0.095808
  H  H76  1  0.76798405  0.60695626  0.23201654  1 0.095141
  H  H77  1  0.23201588  0.60695611  0.76798362  1 0.095221
  H  H78  1  0.23201584  0.39304370  0.23201660  1 0.095083
  H  H79  1  0.76798385  0.39304353  0.76798349  1 0.095452
  H  H80  1  0.60695639  0.76798407  0.23201664  1 0.095049
  H  H81  1  0.60695680  0.23201614  0.76798317  1 0.095094
  H  H82  1  0.39304353  0.76798407  0.76798333  1 0.09505
  H  H83  1  0.39304367  0.23201593  0.23201665  1 0.095106
  C  C84  1  0.87369888  0.67180027  0.58926429  1 -0.056083
  C  C85  1  0.12629979  0.32820037  0.58926348  1 -0.056316
  C  C86  1  0.12630101  0.67180033  0.41073600  1 -0.055981
  C  C87  1  0.87370020  0.32820037  0.41073669  1 -0.055774
  C  C88  1  0.58926575  0.87369910  0.67179903  1 -0.052906
  C  C89  1  0.58926595  0.12630049  0.32820180  1 -0.054805
  C  C90  1  0.41073414  0.12630101  0.67179897  1 -0.054928
  C  C91  1  0.41073401  0.87369956  0.32820186  1 -0.055168
  C  C92  1  0.67179907  0.58926118  0.87370381  1 -0.054977
  C  C93  1  0.32820096  0.58926136  0.12629700  1 -0.054288
  C  C94  1  0.67179818  0.41073883  0.12629555  1 -0.055127
  C  C95  1  0.32820210  0.41073886  0.87370480  1 -0.054105
  C  C96  1  0.67179826  0.87369966  0.41073396  1 -0.056642
  C  C97  1  0.32820198  0.12630035  0.41073417  1 -0.056135
  C  C98  1  0.67179903  0.12630160  0.58926632  1 -0.054341
  C  C99  1  0.32820115  0.87369866  0.58926596  1 -0.055605
  C  C100  1  0.87370055  0.58926486  0.32820234  1 -0.055511
  C  C101  1  0.12630035  0.58926570  0.67179782  1 -0.055232
  C  C102  1  0.12629835  0.41073540  0.32820311  1 -0.054379
  C  C103  1  0.87370062  0.41073446  0.67179703  1 -0.054481
  C  C104  1  0.58926007  0.67180164  0.12629809  1 -0.054002
  C  C105  1  0.58925908  0.32819809  0.87370248  1 -0.054619
  C  C106  1  0.41074055  0.67180189  0.87370305  1 -0.053643
  C  C107  1  0.41074179  0.32819812  0.12629530  1 -0.053821
  C  C108  1  0.12629977  0.32820033  0.41073675  1 -0.055709
  C  C109  1  0.87369890  0.67180032  0.41073592  1 -0.055981
  C  C110  1  0.87370019  0.32820042  0.58926353  1 -0.056247
  C  C111  1  0.12630105  0.67180028  0.58926424  1 -0.056021
  C  C112  1  0.41073397  0.12630048  0.32820190  1 -0.055122
  C  C113  1  0.41073419  0.87369905  0.67179900  1 -0.055015
  C  C114  1  0.58926586  0.87369965  0.32820177  1 -0.054772
  C  C115  1  0.58926585  0.12630106  0.67179901  1 -0.052865
  C  C116  1  0.32820210  0.41073888  0.12629524  1 -0.054107
  C  C117  1  0.67179821  0.41073880  0.87370446  1 -0.055191
  C  C118  1  0.32820096  0.58926138  0.87370305  1 -0.054231
  C  C119  1  0.67179905  0.58926115  0.12629622  1 -0.054845
  C  C120  1  0.32820115  0.12630148  0.58926600  1 -0.055518
  C  C121  1  0.67179907  0.87369849  0.58926627  1 -0.054335
  C  C122  1  0.32820199  0.87369978  0.41073421  1 -0.056095
  C  C123  1  0.67179823  0.12630043  0.41073392  1 -0.056585
  C  C124  1  0.12629926  0.41073450  0.67179706  1 -0.054481
  C  C125  1  0.87370154  0.41073535  0.32820313  1 -0.054306
  C  C126  1  0.87369965  0.58926571  0.67179780  1 -0.055153
  C  C127  1  0.12629947  0.58926482  0.32820233  1 -0.055512
  C  C128  1  0.41074176  0.32819808  0.87370470  1 -0.053805
  C  C129  1  0.41074056  0.67180186  0.12629698  1 -0.053563
  C  C130  1  0.58925905  0.32819814  0.12629752  1 -0.054567
  C  C131  1  0.58926006  0.67180167  0.87370196  1 -0.054008
  C  C132  1  0.77563466  0.68393504  0.68393590  1 0.101735
  C  C133  1  0.83744755  0.65082606  0.65082360  1 -0.032548
  C  C134  1  0.22436508  0.31606521  0.68393579  1 0.101488
  C  C135  1  0.16255178  0.34917452  0.65082295  1 -0.032378
  C  C136  1  0.22436503  0.68393489  0.31606444  1 0.101559
  C  C137  1  0.16255205  0.65082587  0.34917656  1 -0.032517
  C  C138  1  0.77563476  0.31606505  0.31606430  1 0.101065
  C  C139  1  0.83744856  0.34917470  0.34917720  1 -0.032337
  C  C140  1  0.68393573  0.77563365  0.68393638  1 0.100447
  C  C141  1  0.65082469  0.83744735  0.65082509  1 -0.031348
  C  C142  1  0.68393619  0.22436710  0.31606320  1 0.101038
  C  C143  1  0.65082439  0.16255262  0.34917539  1 -0.032086
  C  C144  1  0.31606435  0.22436627  0.68393628  1 0.101341
  C  C145  1  0.34917526  0.16255277  0.65082509  1 -0.032014
  C  C146  1  0.31606400  0.77563325  0.31606331  1 0.101289
  C  C147  1  0.34917566  0.83744762  0.34917545  1 -0.03246
  C  C148  1  0.68393543  0.68393543  0.77563449  1 0.099976
  C  C149  1  0.65082335  0.65082560  0.83744784  1 -0.030217
  C  C150  1  0.31606419  0.68393612  0.22436630  1 0.099563
  C  C151  1  0.34917709  0.65082644  0.16255329  1 -0.02933
  C  C152  1  0.68393516  0.31606456  0.22436536  1 0.099837
  C  C153  1  0.65082299  0.34917420  0.16255183  1 -0.029611
  C  C154  1  0.31606435  0.31606412  0.77563401  1 0.099832
  C  C155  1  0.34917824  0.34917411  0.83744754  1 -0.029468
  C  C156  1  0.68393612  0.77563303  0.31606317  1 0.100961
  C  C157  1  0.65082432  0.83744758  0.34917542  1 -0.032078
  C  C158  1  0.31606402  0.22436681  0.31606329  1 0.101359
  C  C159  1  0.34917561  0.16255253  0.34917542  1 -0.032463
  C  C160  1  0.68393582  0.22436650  0.68393634  1 0.100574
  C  C161  1  0.65082476  0.16255287  0.65082514  1 -0.031363
  C  C162  1  0.31606436  0.77563381  0.68393626  1 0.101238
  C  C163  1  0.34917532  0.83744740  0.65082504  1 -0.031991
  C  C164  1  0.77563478  0.68393498  0.31606429  1 0.101502
  C  C165  1  0.83744793  0.65082588  0.34917655  1 -0.032458
  C  C166  1  0.22436515  0.68393492  0.68393576  1 0.101738
  C  C167  1  0.16255244  0.65082606  0.65082359  1 -0.03254
  C  C168  1  0.22436498  0.31606523  0.31606441  1 0.101084
  C  C169  1  0.16255137  0.34917472  0.34917720  1 -0.032402
  C  C170  1  0.77563465  0.31606500  0.68393588  1 0.101534
  C  C171  1  0.83744815  0.34917451  0.65082295  1 -0.032376
  C  C172  1  0.68393535  0.68393549  0.22436555  1 0.099716
  C  C173  1  0.65082339  0.65082562  0.16255225  1 -0.02985
  C  C174  1  0.68393526  0.31606462  0.77563463  1 0.100136
  C  C175  1  0.65082297  0.34917418  0.83744822  1 -0.029966
  C  C176  1  0.31606410  0.68393603  0.77563375  1 0.099759
  C  C177  1  0.34917713  0.65082642  0.83744681  1 -0.029634
  C  C178  1  0.31606447  0.31606402  0.22436600  1 0.099628
  C  C179  1  0.34917822  0.34917411  0.16255253  1 -0.029164
  C  C180  1  0.74476215  0.74476289  0.65443526  1 -0.195376
  C  C181  1  0.25523798  0.25523748  0.65443564  1 -0.195376
  C  C182  1  0.25523794  0.74476284  0.34556464  1 -0.195335
  C  C183  1  0.74476222  0.25523728  0.34556475  1 -0.195607
  C  C184  1  0.65443428  0.74476317  0.74476259  1 -0.196192
  C  C185  1  0.65443425  0.25523695  0.25523735  1 -0.196131
  C  C186  1  0.34556583  0.25523678  0.74476272  1 -0.196207
  C  C187  1  0.34556600  0.74476340  0.25523729  1 -0.196297
  C  C188  1  0.74476230  0.65443511  0.74476275  1 -0.195767
  C  C189  1  0.25523765  0.65443517  0.25523740  1 -0.19625
  C  C190  1  0.74476211  0.34556466  0.25523744  1 -0.196215
  C  C191  1  0.25523771  0.34556503  0.74476286  1 -0.196082
  C  C192  1  0.74476216  0.74476290  0.34556477  1 -0.195483
  C  C193  1  0.25523798  0.25523743  0.34556442  1 -0.195361
  C  C194  1  0.74476220  0.25523730  0.65443530  1 -0.195527
  C  C195  1  0.25523794  0.74476281  0.65443541  1 -0.195302
  C  C196  1  0.74476227  0.65443527  0.25523743  1 -0.196138
  C  C197  1  0.25523762  0.65443502  0.74476278  1 -0.196069
  C  C198  1  0.25523773  0.34556489  0.25523730  1 -0.196259
  C  C199  1  0.74476213  0.34556480  0.74476272  1 -0.195862
  C  C200  1  0.65443414  0.74476322  0.25523733  1 -0.196246
  C  C201  1  0.65443443  0.25523701  0.74476254  1 -0.196147
  C  C202  1  0.34556585  0.74476332  0.74476265  1 -0.196352
  C  C203  1  0.34556602  0.25523669  0.25523720  1 -0.196194
  N  N204  1  0.92685554  0.62609067  0.57565970  1 -0.157692
  N  N205  1  0.07314310  0.37391125  0.57566088  1 -0.152131
  N  N206  1  0.07314439  0.62609039  0.42434048  1 -0.157394
  N  N207  1  0.92685715  0.37391166  0.42433943  1 -0.151779
  N  N208  1  0.57566240  0.92685433  0.62608768  1 -0.156835
  N  N209  1  0.57566892  0.07314582  0.37391824  1 -0.159029
  N  N210  1  0.42433744  0.07314610  0.62608753  1 -0.158076
  N  N211  1  0.42433116  0.92685398  0.37391849  1 -0.158573
  N  N212  1  0.62606576  0.57568626  0.92685551  1 -0.151526
  N  N213  1  0.37394437  0.57569665  0.07314638  1 -0.153108
  N  N214  1  0.62606351  0.42431303  0.07314410  1 -0.151979
  N  N215  1  0.37394681  0.42429955  0.92685614  1 -0.153503
  N  N216  1  0.62608173  0.92685561  0.42433175  1 -0.151903
  N  N217  1  0.37391780  0.07314444  0.42433205  1 -0.154316
  N  N218  1  0.62608785  0.07314532  0.57566068  1 -0.149901
  N  N219  1  0.37391184  0.92685508  0.57566041  1 -0.153768
  N  N220  1  0.92685571  0.57566108  0.37391062  1 -0.157942
  N  N221  1  0.07314576  0.57566297  0.62608875  1 -0.162459
  N  N222  1  0.07314334  0.42433517  0.37391384  1 -0.156074
  N  N223  1  0.92685537  0.42433318  0.62608544  1 -0.160539
  N  N224  1  0.57568388  0.62606681  0.07314553  1 -0.159522
  N  N225  1  0.57568262  0.37393434  0.92685486  1 -0.161
  N  N226  1  0.42430387  0.62605775  0.92685514  1 -0.158271
  N  N227  1  0.42430204  0.37394343  0.07314256  1 -0.16038
  N  N228  1  0.07314294  0.37391163  0.42433944  1 -0.151535
  N  N229  1  0.92685569  0.62609031  0.42434043  1 -0.157567
  N  N230  1  0.92685703  0.37391127  0.57566084  1 -0.151967
  N  N231  1  0.07314458  0.62609075  0.57565969  1 -0.157861
  N  N232  1  0.42433114  0.07314615  0.37391843  1 -0.158549
  N  N233  1  0.42433745  0.92685403  0.62608749  1 -0.158451
  N  N234  1  0.57566877  0.92685440  0.37391827  1 -0.15896
  N  N235  1  0.57566253  0.07314588  0.62608770  1 -0.156909
  N  N236  1  0.37394680  0.42429952  0.07314393  1 -0.153731
  N  N237  1  0.62606349  0.42431304  0.92685596  1 -0.151908
  N  N238  1  0.37394439  0.57569665  0.92685367  1 -0.153139
  N  N239  1  0.62606580  0.57568626  0.07314456  1 -0.151744
  N  N240  1  0.37391183  0.07314510  0.57566046  1 -0.154084
  N  N241  1  0.62608778  0.92685484  0.57566066  1 -0.150048
  N  N242  1  0.37391781  0.92685576  0.42433214  1 -0.154344
  N  N243  1  0.62608183  0.07314456  0.42433170  1 -0.151821
  N  N244  1  0.07314473  0.42433322  0.62608555  1 -0.160459
  N  N245  1  0.92685671  0.42433512  0.37391390  1 -0.155935
  N  N246  1  0.92685442  0.57566292  0.62608869  1 -0.162541
  N  N247  1  0.07314442  0.57566112  0.37391058  1 -0.158036
  N  N248  1  0.42430202  0.37394346  0.92685749  1 -0.160426
  N  N249  1  0.42430388  0.62605774  0.07314491  1 -0.158429
  N  N250  1  0.57568262  0.37393432  0.07314519  1 -0.161378
  N  N251  1  0.57568385  0.62606681  0.92685455  1 -0.159458
