# generated using pymatgen
data_CuH32(C5N3)4
_symmetry_space_group_name_H-M   'P 1'
_cell_length_a   12.65240200
_cell_length_b   12.98670339
_cell_length_c   13.25254422
_cell_angle_alpha   102.83762884
_cell_angle_beta   98.51912639
_cell_angle_gamma   116.12394522
_symmetry_Int_Tables_number   1
_chemical_formula_structural   CuH32(C5N3)4
_chemical_formula_sum   'Cu2 H64 C40 N24'
_cell_volume   1829.44521770
_cell_formula_units_Z   2
loop_
 _symmetry_equiv_pos_site_id
 _symmetry_equiv_pos_as_xyz
  1  'x, y, z'
loop_
 _atom_site_type_symbol
 _atom_site_label
 _atom_site_symmetry_multiplicity
 _atom_site_fract_x
 _atom_site_fract_y
 _atom_site_fract_z
 _atom_site_occupancy
 _atom_site_charge
  Cu  Cu0  1  0.94426134  0.04577631  0.98124371  1 0.263926
  Cu  Cu1  1  0.48133543  0.48891506  0.44681804  1 0.263031
  H  H2  1  0.54925810  0.38159722  0.82013607  1 0.011964
  H  H3  1  0.60543445  0.37594526  0.51537476  1 0.074444
  H  H4  1  0.70705150  0.65817910  0.37589342  1 0.037915
  H  H5  1  0.66408215  0.66109941  0.68555604  1 0.067815
  H  H6  1  0.77459916  0.26877507  0.78585759  1 0.08919
  H  H7  1  0.69780248  0.30176219  0.87991929  1 0.051958
  H  H8  1  0.97563445  0.94332943  0.57523598  1 0.091023
  H  H9  1  0.90643362  0.86088897  0.43483041  1 0.061067
  H  H10  1  0.65438246  0.97688760  0.91476640  1 0.038185
  H  H11  1  0.92295967  0.13577124  0.76126955  1 0.057157
  H  H12  1  0.89634143  0.25648529  0.09256843  1 0.100328
  H  H13  1  0.93784818  0.99844521  0.21239064  1 0.065773
  H  H14  1  0.84400584  0.52571862  0.92371366  1 0.054655
  H  H15  1  0.92609112  0.48869330  0.83780674  1 0.082234
  H  H16  1  0.90624506  0.05567144  0.47420441  1 0.087525
  H  H17  1  0.83188085  0.02518568  0.57590244  1 0.085068
  H  H18  1  0.88126522  0.40606943  0.03488605  1 0.036058
  H  H19  1  0.96998638  0.37473809  0.95409535  1 0.070831
  H  H20  1  0.64490205  0.85244817  0.44018894  1 0.066713
  H  H21  1  0.71774389  0.87311948  0.33657912  1 0.046639
  H  H22  1  0.49661086  0.86316413  0.63214549  1 0.097354
  H  H23  1  0.46445141  0.90082980  0.75700945  1 0.058064
  H  H24  1  0.77894763  0.27155749  0.30926795  1 0.054294
  H  H25  1  0.88420023  0.38086059  0.26283372  1 0.08074
  H  H26  1  0.66617864  0.05987539  0.47486358  1 0.081813
  H  H27  1  0.74325295  0.08092722  0.37380978  1 0.077347
  H  H28  1  0.54364194  0.07780855  0.62904374  1 0.088876
  H  H29  1  0.47440828  0.08680359  0.73497791  1 0.060867
  H  H30  1  0.05583691  0.42746173  0.42154216  1 0.09243
  H  H31  1  0.94595317  0.32379388  0.46951595  1 0.096428
  H  H32  1  0.94622827  0.54907089  0.43074497  1 0.066167
  H  H33  1  0.83759093  0.44741871  0.48040891  1 0.059141
  H  H34  1  0.42817927  0.61224098  0.26689511  1 0.012007
  H  H35  1  0.29496402  0.58614675  0.53790017  1 0.074465
  H  H36  1  0.34096356  0.28723048  0.54406753  1 0.037933
  H  H37  1  0.30473508  0.27130998  0.21921652  1 0.067838
  H  H38  1  0.20402939  0.73364849  0.25942403  1 0.089114
  H  H39  1  0.30005111  0.70522428  0.18624352  1 0.051979
  H  H40  1  0.05090048  -0.00724324  0.35975582  1 0.091039
  H  H41  1  0.11458903  0.08643166  0.49721235  1 0.061054
  H  H42  1  0.45981840  0.98494596  0.04611100  1 0.038204
  H  H43  1  0.11868265  0.86587814  0.11137303  1 0.057164
  H  H44  1  0.95910559  0.79811959  0.91300338  1 0.100281
  H  H45  1  0.11907176  0.11475868  0.82798687  1 0.065787
  H  H46  1  0.15277711  0.48120237  0.12614372  1 0.054632
  H  H47  1  0.05761394  0.50939039  0.20067109  1 0.082238
  H  H48  1  0.12217318  0.89310906  0.46626259  1 0.087535
  H  H49  1  0.21364030  0.93300027  0.37725367  1 0.085087
  H  H50  1  0.11854847  0.59880668  0.00933279  1 0.036049
  H  H51  1  0.02605112  0.62900622  0.08548342  1 0.070873
  H  H52  1  0.38390415  0.10587228  0.52451660  1 0.066687
  H  H53  1  0.29246175  0.08918689  0.61468447  1 0.046652
  H  H54  1  0.51749905  0.10541652  0.34407726  1 0.09732
  H  H55  1  0.59348942  0.09621722  0.24260092  1 0.058034
  H  H56  1  0.17655833  0.77686150  0.75893032  1 0.05431
  H  H57  1  0.06343168  0.69079082  0.81488843  1 0.080728
  H  H58  1  0.35092221  0.89176147  0.51082517  1 0.081846
  H  H59  1  0.27889221  0.89542492  0.61450181  1 0.077388
  H  H60  1  0.47422631  0.89445871  0.34088784  1 0.088903
  H  H61  1  0.55091447  0.88904224  0.24011854  1 0.060851
  H  H62  1  0.89853906  0.62964658  0.64773776  1 0.09242
  H  H63  1  0.00827642  0.72492068  0.59428083  1 0.096433
  H  H64  1  0.00206776  0.50220717  0.64410850  1 0.066148
  H  H65  1  0.11375501  0.59989305  0.59335595  1 0.059114
  C  C66  1  0.58310565  0.37535514  0.74949347  1 0.093616
  C  C67  1  0.61413233  0.37117557  0.59684743  1 0.128958
  C  C68  1  0.71682049  0.68454413  0.46188247  1 0.065507
  C  C69  1  0.69823553  0.68934961  0.62042194  1 0.126454
  C  C70  1  0.75318472  0.33759132  0.82656346  1 -0.078772
  C  C71  1  0.88926384  0.89715909  0.51030061  1 -0.067384
  C  C72  1  0.70147888  0.01214320  0.85795929  1 0.083625
  C  C73  1  0.83525627  0.09133645  0.77796463  1 0.131315
  C  C74  1  0.90538651  0.20517692  0.14425755  1 0.042056
  C  C75  1  0.92590461  0.07507938  0.20770900  1 0.123857
  C  C76  1  0.86970511  0.45669005  0.89168816  1 -0.159013
  C  C77  1  0.83907153  0.98289956  0.49775477  1 -0.18407
  C  C78  1  0.94239558  0.44251904  0.98518793  1 -0.126675
  C  C79  1  0.71404434  0.92166460  0.41477121  1 -0.124715
  C  C80  1  0.51442033  0.93946001  0.70171800  1 -0.068197
  C  C81  1  0.87618399  0.31845711  0.30906680  1 -0.07377
  C  C82  1  0.67218750  0.01205007  0.39789363  1 -0.137665
  C  C83  1  0.47436184  0.02315279  0.66433063  1 -0.160531
  C  C84  1  0.95985154  0.38783903  0.42409645  1 -0.163148
  C  C85  1  0.93413386  0.48758044  0.47893929  1 -0.136684
  C  C86  1  0.37829628  0.61443573  0.32657561  1 0.093589
  C  C87  1  0.30830915  0.60203013  0.46255759  1 0.129037
  C  C88  1  0.30809532  0.25741407  0.45677557  1 0.065427
  C  C89  1  0.28922915  0.24678968  0.29091600  1 0.126413
  C  C90  1  0.23138762  0.66620519  0.22857137  1 -0.078655
  C  C91  1  0.13626459  0.04757491  0.42578726  1 -0.067411
  C  C92  1  0.38581525  0.96101298  0.08421995  1 0.083556
  C  C93  1  0.21625732  0.90219531  0.12002930  1 0.131264
  C  C94  1  0.00837002  0.86501530  0.87662583  1 0.042136
  C  C95  1  0.08994458  0.02381650  0.83133852  1 0.123822
  C  C96  1  0.12144143  0.54675608  0.15364594  1 -0.15902
  C  C97  1  0.19307633  0.97028078  0.45001824  1 -0.184148
  C  C98  1  0.05503360  0.56172446  0.05681603  1 -0.12673
  C  C99  1  0.30837209  0.03807078  0.54568293  1 -0.124591
  C  C100  1  0.52139061  0.04230773  0.27595222  1 -0.068005
  C  C101  1  0.08005799  0.74275951  0.75837588  1 -0.073818
  C  C102  1  0.34863054  0.95363856  0.58138275  1 -0.137842
  C  C103  1  0.54932423  0.95064175  0.31148494  1 -0.160645
  C  C104  1  0.99432628  0.66574292  0.64472156  1 -0.163127
  C  C105  1  0.01689381  0.56206333  0.59401435  1 -0.136572
  N  N106  1  0.54088506  0.38799549  0.65716205  1 -0.352428
  N  N107  1  0.35826926  0.32232786  0.39371514  1 -0.286541
  N  N108  1  0.67662250  0.35182759  0.74383456  1 0.133643
  N  N109  1  0.69848585  0.34956633  0.64590853  1 -0.272109
  N  N110  1  0.80476084  0.79234098  0.53416970  1 0.141581
  N  N111  1  0.79414772  0.79704564  0.63611942  1 -0.253417
  N  N112  1  0.82362630  0.06858164  0.87212214  1 -0.351364
  N  N113  1  0.92233807  0.10788476  0.11700115  1 -0.2758
  N  N114  1  0.64434216  0.00233456  0.75825281  1 0.129828
  N  N115  1  0.72950090  0.05344866  0.70583429  1 -0.254471
  N  N116  1  0.90421928  0.23030021  0.24904612  1 0.13473
  N  N117  1  0.91377539  0.14505022  0.28971357  1 -0.261951
  N  N118  1  0.39110702  0.58466742  0.41661653  1 -0.352515
  N  N119  1  0.64702939  0.61708143  0.51470984  1 -0.286576
  N  N120  1  0.29134422  0.64913884  0.32066317  1 0.133612
  N  N121  1  0.24395939  0.63985485  0.40700150  1 -0.27216
  N  N122  1  0.21426336  0.14827490  0.39305062  1 0.141765
  N  N123  1  0.20088117  0.13996793  0.28697493  1 -0.253482
  N  N124  1  0.26595537  0.90731125  0.03552670  1 -0.351318
  N  N125  1  0.02069900  0.97635026  0.89637920  1 -0.275772
  N  N126  1  0.40585633  0.98590222  0.19235448  1 0.129796
  N  N127  1  0.29704360  0.94794088  0.21678088  1 -0.254423
  N  N128  1  0.06757606  0.84832898  0.80349879  1 0.134774
  N  N129  1  0.12039083  0.94899855  0.77351366  1 -0.261975
