# generated using pymatgen
data_Zn3H40C40(NO8)2
_symmetry_space_group_name_H-M   'P 1'
_cell_length_a   9.90214904
_cell_length_b   17.46334804
_cell_length_c   18.10339632
_cell_angle_alpha   91.61352198
_cell_angle_beta   89.99293247
_cell_angle_gamma   106.47373003
_symmetry_Int_Tables_number   1
_chemical_formula_structural   Zn3H40C40(NO8)2
_chemical_formula_sum   'Zn6 H80 C80 N4 O32'
_cell_volume   3000.72423591
_cell_formula_units_Z   2
loop_
 _symmetry_equiv_pos_site_id
 _symmetry_equiv_pos_as_xyz
  1  'x, y, z'
loop_
 _atom_site_type_symbol
 _atom_site_label
 _atom_site_symmetry_multiplicity
 _atom_site_fract_x
 _atom_site_fract_y
 _atom_site_fract_z
 _atom_site_occupancy
 _atom_site_charge
  Zn  Zn0  1  0.14988214  0.69326024  0.00211737  1 0.921329
  Zn  Zn1  1  0.45660048  0.30673721  0.49781271  1 0.921138
  Zn  Zn2  1  0.85011744  0.30673980  0.99788289  1 0.921302
  Zn  Zn3  1  0.54340071  0.69326346  0.50218763  1 0.921202
  Zn  Zn4  1  -0.00000087  0.49999991  0.00000024  1 1.025604
  Zn  Zn5  1  0.50000013  0.50000002  0.50000009  1 1.023466
  H  H6  1  0.59913196  0.92605506  0.09101843  1 0.103647
  H  H7  1  0.28348561  0.92851386  0.92979033  1 0.103231
  H  H8  1  0.53913577  0.57362328  0.88253816  1 0.099577
  H  H9  1  0.30212554  0.50840150  0.08130099  1 0.105273
  H  H10  1  -0.00018652  0.74278716  0.21720961  1 0.107198
  H  H11  1  0.86919208  0.73576891  0.33813402  1 0.109641
  H  H12  1  0.62118702  0.49799980  0.27927923  1 0.110549
  H  H13  1  0.74866722  0.50539053  0.15828844  1 0.109025
  H  H14  1  0.67315462  0.07393902  0.40899267  1 0.10402
  H  H15  1  0.35488660  0.07146676  0.57016147  1 0.103754
  H  H16  1  0.96540779  0.42634920  0.61744711  1 0.099772
  H  H17  1  0.79380344  0.49156891  0.41865707  1 0.105745
  H  H18  1  0.25697113  0.25723533  0.28283519  1 0.108125
  H  H19  1  0.13342176  0.26422264  0.16189378  1 0.10998
  H  H20  1  0.12322468  0.50200589  0.22070422  1 0.111771
  H  H21  1  0.24326722  0.49463778  0.34171923  1 0.108714
  H  H22  1  0.40086817  0.07394440  0.90898161  1 0.103654
  H  H23  1  0.71651346  0.07148583  0.07020936  1 0.103201
  H  H24  1  0.46086438  0.42637672  0.11746157  1 0.099583
  H  H25  1  0.69787411  0.49159839  0.91869904  1 0.105277
  H  H26  1  0.00018672  0.25721289  0.78279041  1 0.107197
  H  H27  1  0.13080778  0.26423108  0.66186615  1 0.109634
  H  H28  1  0.37881302  0.50200011  0.72072078  1 0.110532
  H  H29  1  0.25133284  0.49460946  0.84171169  1 0.109015
  H  H30  1  0.32684638  0.92606179  0.59100681  1 0.104006
  H  H31  1  0.64511581  0.92853432  0.42983799  1 0.103747
  H  H32  1  0.03459314  0.57365091  0.38255294  1 0.099774
  H  H33  1  0.20619772  0.50843116  0.58134305  1 0.105733
  H  H34  1  0.74302909  0.74276465  0.71716496  1 0.108133
  H  H35  1  0.86657808  0.73577716  0.83810649  1 0.109969
  H  H36  1  0.87677495  0.49799393  0.77929574  1 0.111776
  H  H37  1  0.75673274  0.50536235  0.65828072  1 0.108716
  H  H38  1  0.43354908  0.78457226  0.83477650  1 0.286027
  H  H39  1  0.30305801  0.70530799  0.84692892  1 0.288355
  H  H40  1  0.44723422  0.75479121  0.70387743  1 0.101935
  H  H41  1  0.46147410  0.67738929  0.76295193  1 0.087532
  H  H42  1  0.19491126  0.68212450  0.67628622  1 0.13177
  H  H43  1  0.30504773  0.62104753  0.65695836  1 0.148457
  H  H44  1  0.20351497  0.60609638  0.73910062  1 0.126537
  H  H45  1  0.16069434  0.76575968  0.76150134  1 0.09236
  H  H46  1  0.21243976  0.81422931  0.84874085  1 0.096059
  H  H47  1  0.36870073  0.86450234  0.70119429  1 0.136107
  H  H48  1  0.25979799  0.91497787  0.74827722  1 0.131979
  H  H49  1  0.41929454  0.91214998  0.79009246  1 0.118188
  H  H50  1  0.64904148  0.21542668  0.66520314  1 0.287391
  H  H51  1  0.59779639  0.29467640  0.65305090  1 0.289257
  H  H52  1  0.69241517  0.24519336  0.79611096  1 0.101879
  H  H53  1  0.78412127  0.32259259  0.73704731  1 0.088005
  H  H54  1  0.51277440  0.31784043  0.82370175  1 0.131946
  H  H55  1  0.68398039  0.37893798  0.84302935  1 0.148964
  H  H56  1  0.59742056  0.39387732  0.76088836  1 0.126477
  H  H57  1  0.39493242  0.23420298  0.73846157  1 0.092401
  H  H58  1  0.39827588  0.18574509  0.65122287  1 0.096154
  H  H59  1  0.50420582  0.13547284  0.79876532  1 0.136349
  H  H60  1  0.34483406  0.08498757  0.75169446  1 0.132792
  H  H61  1  0.50716342  0.08783570  0.70985905  1 0.118495
  H  H62  1  0.56645096  0.21542767  0.16522338  1 0.286036
  H  H63  1  0.69694218  0.29469188  0.15307101  1 0.288362
  H  H64  1  0.55276582  0.24520874  0.29612251  1 0.101933
  H  H65  1  0.53852600  0.32261068  0.23704797  1 0.08753
  H  H66  1  0.80508881  0.31787539  0.32371373  1 0.131752
  H  H67  1  0.69495232  0.37895239  0.34304159  1 0.148415
  H  H68  1  0.79648520  0.39390356  0.26089932  1 0.126556
  H  H69  1  0.83930573  0.23424021  0.23849858  1 0.092362
  H  H70  1  0.78756027  0.18577059  0.15125904  1 0.096052
  H  H71  1  0.63129917  0.13549759  0.29880560  1 0.136113
  H  H72  1  0.74020207  0.08502206  0.25172272  1 0.131978
  H  H73  1  0.58070547  0.08784989  0.20990744  1 0.118198
  H  H74  1  0.35095850  0.78457322  0.33479671  1 0.287385
  H  H75  1  0.40220354  0.70532355  0.34694917  1 0.289327
  H  H76  1  0.30758486  0.75480648  0.20388898  1 0.101878
  H  H77  1  0.21587882  0.67740728  0.26295264  1 0.088006
  H  H78  1  0.48722571  0.68215943  0.17629820  1 0.131939
  H  H79  1  0.31601973  0.62106192  0.15697056  1 0.148963
  H  H80  1  0.40257956  0.60612255  0.23911157  1 0.126481
  H  H81  1  0.60506778  0.76579687  0.26153853  1 0.092382
  H  H82  1  0.60172409  0.81425481  0.34877722  1 0.09615
  H  H83  1  0.49579428  0.86452696  0.20123466  1 0.136347
  H  H84  1  0.65516611  0.91501230  0.24830552  1 0.132791
  H  H85  1  0.49283666  0.91216417  0.29014089  1 0.118502
  C  C86  1  0.36342981  0.83262078  0.02598572  1 0.564756
  C  C87  1  0.43478778  0.91876843  0.01157804  1 -0.030557
  C  C88  1  0.55639016  0.95922205  0.05151112  1 -0.106819
  C  C89  1  0.37902395  0.96024818  0.95993961  1 -0.107304
  C  C90  1  0.31703961  0.59438713  0.95856056  1 0.599559
  C  C91  1  0.41104959  0.54533980  0.97984668  1 -0.028921
  C  C92  1  0.52244676  0.54090985  0.93369691  1 -0.0895
  C  C93  1  0.38929683  0.50440156  0.04630325  1 -0.078377
  C  C94  1  0.95340220  0.62859620  0.10870891  1 0.599747
  C  C95  1  0.87961686  0.62491589  0.18090303  1 -0.029063
  C  C96  1  0.91582956  0.68993417  0.23149573  1 -0.109708
  C  C97  1  0.84396750  0.68613457  0.29788814  1 -0.107565
  C  C98  1  0.73710042  0.61685603  0.31434900  1 -0.034022
  C  C99  1  0.70366137  0.55130655  0.26459254  1 -0.093951
  C  C100  1  0.77396045  0.55545741  0.19784690  1 -0.086174
  C  C101  1  0.65636277  0.61234431  0.38451517  1 0.594794
  C  C102  1  0.53076646  0.16737415  0.47397447  1 0.565989
  C  C103  1  0.51600072  0.08123365  0.48840339  1 -0.03087
  C  C104  1  0.59720269  0.04078461  0.44849561  1 -0.108616
  C  C105  1  0.41873492  0.03973930  0.54003611  1 -0.106331
  C  C106  1  0.72262721  0.40556240  0.54138475  1 0.602426
  C  C107  1  0.86568505  0.45463384  0.52012171  1 -0.029432
  C  C108  1  0.98146103  0.45907948  0.56629805  1 -0.0905
  C  C109  1  0.88495230  0.49558021  0.45366833  1 -0.078347
  C  C110  1  0.32471669  0.37141366  0.39129657  1 0.597257
  C  C111  1  0.25464115  0.37510164  0.31910760  1 -0.028081
  C  C112  1  0.22586563  0.31007974  0.26852079  1 -0.110211
  C  C113  1  0.15784322  0.31387036  0.20212361  1 -0.109388
  C  C114  1  0.12025942  0.38314533  0.18566363  1 -0.032032
  C  C115  1  0.15237479  0.44870461  0.23540807  1 -0.09619
  C  C116  1  0.21847947  0.44456543  0.30216194  1 -0.085986
  C  C117  1  0.04396656  0.38762690  0.11551497  1 0.594715
  C  C118  1  0.63656675  0.16737868  0.97401397  1 0.564603
  C  C119  1  0.56521086  0.08123108  0.98842216  1 -0.030551
  C  C120  1  0.44360924  0.04077727  0.94848896  1 -0.106832
  C  C121  1  0.62097518  0.03975136  0.04006030  1 -0.107266
  C  C122  1  0.68296053  0.40561328  0.04143917  1 0.599536
  C  C123  1  0.58895026  0.45466020  0.02015320  1 -0.028937
  C  C124  1  0.47755301  0.45909021  0.06630283  1 -0.08949
  C  C125  1  0.61070273  0.49559850  0.95369655  1 -0.078373
  C  C126  1  0.04659739  0.37140352  0.89129117  1 0.59972
  C  C127  1  0.12038315  0.37508404  0.81909716  1 -0.029062
  C  C128  1  0.08417046  0.31006570  0.76850437  1 -0.10972
  C  C129  1  0.15603237  0.31386540  0.70211195  1 -0.107507
  C  C130  1  0.26289952  0.38314397  0.68565109  1 -0.034117
  C  C131  1  0.29633862  0.44869349  0.73540758  1 -0.093913
  C  C132  1  0.22603968  0.44454260  0.80215326  1 -0.08614
  C  C133  1  0.34363704  0.38765573  0.61548501  1 0.594827
  C  C134  1  0.46923479  0.83262662  0.52602502  1 0.565979
  C  C135  1  0.48400112  0.91876760  0.51159636  1 -0.030842
  C  C136  1  0.40279899  0.95921643  0.55150394  1 -0.108565
  C  C137  1  0.58126712  0.96026175  0.45996357  1 -0.106266
  C  C138  1  0.27737345  0.59443830  0.45861549  1 0.60244
  C  C139  1  0.13431562  0.54536642  0.47987853  1 -0.029439
  C  C140  1  0.01853967  0.54092060  0.43370202  1 -0.090521
  C  C141  1  0.11504849  0.50441982  0.54633187  1 -0.078321
  C  C142  1  0.67528363  0.62858624  0.60870379  1 0.597362
  C  C143  1  0.74535902  0.62489821  0.68089275  1 -0.028045
  C  C144  1  0.77413438  0.68992014  0.73147955  1 -0.110218
  C  C145  1  0.84215680  0.68612929  0.79787670  1 -0.109394
  C  C146  1  0.87974037  0.61685430  0.81433663  1 -0.03206
  C  C147  1  0.84762500  0.55129529  0.76459204  1 -0.096207
  C  C148  1  0.78152028  0.55543464  0.69783826  1 -0.085985
  C  C149  1  0.95603274  0.61237242  0.88448503  1 0.594728
  C  C150  1  0.38918986  0.70893591  0.74132134  1 0.015084
  C  C151  1  0.26461008  0.65144886  0.70193850  1 -0.386336
  C  C152  1  0.25075711  0.80159852  0.79419059  1 0.017498
  C  C153  1  0.33012880  0.87722274  0.75579928  1 -0.396427
  C  C154  1  0.68026425  0.29105027  0.75866658  1 0.014725
  C  C155  1  0.61316109  0.34853090  0.79805022  1 -0.386952
  C  C156  1  0.44918525  0.19837198  0.70577948  1 0.01631
  C  C157  1  0.45291868  0.12275006  0.74416374  1 -0.397029
  C  C158  1  0.61081016  0.29106402  0.25867855  1 0.015102
  C  C159  1  0.73539002  0.34855106  0.29806143  1 -0.386302
  C  C160  1  0.74924292  0.19840138  0.20580932  1 0.017506
  C  C161  1  0.66987120  0.12277715  0.24420063  1 -0.396449
  C  C162  1  0.31973586  0.70894960  0.24133337  1 0.014737
  C  C163  1  0.38683902  0.65146897  0.20194971  1 -0.386951
  C  C164  1  0.55081484  0.80162790  0.29422057  1 0.016369
  C  C165  1  0.54708144  0.87724982  0.25583622  1 -0.397035
  N  N166  1  0.34491077  0.74952989  0.80814750  1 -0.208845
  N  N167  1  0.59542254  0.25045789  0.69183603  1 -0.21085
  N  N168  1  0.65508919  0.25047002  0.19185240  1 -0.208861
  N  N169  1  0.40457753  0.74954203  0.30816391  1 -0.210942
  O  O170  1  0.27524427  0.79561862  0.97406351  1 -0.589548
  O  O171  1  0.38800431  0.80166263  0.08380081  1 -0.545423
  O  O172  1  0.21670253  0.59605272  0.00491616  1 -0.603757
  O  O173  1  0.33826372  0.63221593  0.89977400  1 -0.561225
  O  O174  1  0.05784442  0.69053784  0.09864318  1 -0.545163
  O  O175  1  0.09218602  0.42870543  0.93756574  1 -0.566344
  O  O176  1  0.66470938  0.67864913  0.41852311  1 -0.55595
  O  O177  1  0.58475948  0.54314872  0.40301569  1 -0.55775
  O  O178  1  0.47950259  0.20437514  0.52586705  1 -0.590121
  O  O179  1  0.58636687  0.19832558  0.41616149  1 -0.545902
  O  O180  1  0.62064564  0.40392257  0.49504519  1 -0.604153
  O  O181  1  0.70601036  0.36770331  0.60015578  1 -0.562036
  O  O182  1  0.36713178  0.30944828  0.40135219  1 -0.544348
  O  O183  1  0.66350923  0.57128057  0.56243114  1 -0.565231
  O  O184  1  0.98607442  0.32131216  0.08150373  1 -0.556282
  O  O185  1  0.04141056  0.45679581  0.09702530  1 -0.557776
  O  O186  1  0.72475133  0.20438219  0.02593572  1 -0.589471
  O  O187  1  0.61199103  0.19833604  0.91619846  1 -0.545365
  O  O188  1  0.78329804  0.40394759  0.99508379  1 -0.603739
  O  O189  1  0.66173677  0.36778445  0.10022580  1 -0.561205
  O  O190  1  0.94215504  0.30946185  0.90135713  1 -0.545166
  O  O191  1  0.90781368  0.57129461  0.06243441  1 -0.566382
  O  O192  1  0.33529099  0.32135078  0.58147685  1 -0.555939
  O  O193  1  0.41524080  0.45685147  0.59698427  1 -0.557763
  O  O194  1  0.52049991  0.79562568  0.47413346  1 -0.590149
  O  O195  1  0.41363191  0.80167495  0.58383833  1 -0.545934
  O  O196  1  0.37935475  0.59607799  0.50495519  1 -0.604177
  O  O197  1  0.29399001  0.63229752  0.39984465  1 -0.562068
  O  O198  1  0.63286804  0.69055134  0.59864862  1 -0.544413
  O  O199  1  0.33649134  0.42871951  0.43756890  1 -0.565136
  O  O200  1  0.01392472  0.67868693  0.91849620  1 -0.556277
  O  O201  1  0.95858824  0.54320347  0.90297471  1 -0.55774
