# generated using pymatgen
data_NdH9(C3O)6
_symmetry_space_group_name_H-M   'P 1'
_cell_length_a   9.26367064
_cell_length_b   20.73776561
_cell_length_c   14.67511383
_cell_angle_alpha   90.02572713
_cell_angle_beta   105.38069785
_cell_angle_gamma   89.99701652
_symmetry_Int_Tables_number   1
_chemical_formula_structural   NdH9(C3O)6
_chemical_formula_sum   'Nd4 H36 C72 O24'
_cell_volume   2718.23366554
_cell_formula_units_Z   4
loop_
 _symmetry_equiv_pos_site_id
 _symmetry_equiv_pos_as_xyz
  1  'x, y, z'
loop_
 _atom_site_type_symbol
 _atom_site_label
 _atom_site_symmetry_multiplicity
 _atom_site_fract_x
 _atom_site_fract_y
 _atom_site_fract_z
 _atom_site_occupancy
 _atom_site_charge
  Nd  Nd0  1  0.23779711  0.01967137  0.47503719  1 1.927782
  Nd  Nd1  1  0.26236720  0.51988209  0.02507763  1 1.927797
  Nd  Nd2  1  0.76226805  0.98020826  0.52505250  1 1.928429
  Nd  Nd3  1  0.73731437  0.48026569  0.97498378  1 1.928016
  H  H4  1  0.76056515  0.13252483  0.61392028  1 0.110704
  H  H5  1  0.71292160  0.22009554  0.71707755  1 0.107159
  H  H6  1  0.80939971  0.31235221  0.82667719  1 0.116246
  H  H7  1  0.26226459  0.37810377  0.86554219  1 0.115903
  H  H8  1  0.31028116  0.28946464  0.76275155  1 0.106001
  H  H9  1  0.21935805  0.19299087  0.66345435  1 0.117836
  H  H10  1  0.25545989  0.92794725  0.00232373  1 0.107483
  H  H11  1  0.32316453  0.94275968  0.17761594  1 0.116418
  H  H12  1  0.92266807  0.05287267  0.15581970  1 0.116407
  H  H13  1  0.73912176  0.63234432  0.88611107  1 0.110836
  H  H14  1  0.78721058  0.71992870  0.78325528  1 0.107554
  H  H15  1  0.69091569  0.81206100  0.67337272  1 0.116197
  H  H16  1  0.23807012  0.87796246  0.63425296  1 0.116004
  H  H17  1  0.18997780  0.78953302  0.73728828  1 0.106276
  H  H18  1  0.28042916  0.69302649  0.83632263  1 0.117843
  H  H19  1  0.24481046  0.42797186  0.49778603  1 0.107335
  H  H20  1  0.17703430  0.44281068  0.32252958  1 0.116178
  H  H21  1  0.57756396  0.55285598  0.34440521  1 0.11614
  H  H22  1  0.23941541  0.86754781  0.38617333  1 0.110657
  H  H23  1  0.28727693  0.78000136  0.28307311  1 0.107461
  H  H24  1  0.19079737  0.68791677  0.17313311  1 0.115974
  H  H25  1  0.73791934  0.62205841  0.13408030  1 0.115674
  H  H26  1  0.69003531  0.71045799  0.23729003  1 0.106386
  H  H27  1  0.78072379  0.80697371  0.33653321  1 0.117846
  H  H28  1  0.74456051  0.07203620  0.99772485  1 0.107522
  H  H29  1  0.67686631  0.05724267  0.82240516  1 0.11659
  H  H30  1  0.07742595  0.94713318  0.84424965  1 0.116216
  H  H31  1  0.26026797  0.36729475  0.11398207  1 0.110518
  H  H32  1  0.21278639  0.27979491  0.21726990  1 0.106904
  H  H33  1  0.30927606  0.18776926  0.32681466  1 0.116351
  H  H34  1  0.76210692  0.12194427  0.36581850  1 0.115662
  H  H35  1  0.81022347  0.21043045  0.26293236  1 0.106456
  H  H36  1  0.71909373  0.30691969  0.16339243  1 0.117666
  H  H37  1  0.75565643  0.57202741  0.50242820  1 0.107347
  H  H38  1  0.82347863  0.55733365  0.67773789  1 0.116572
  H  H39  1  0.42298606  0.44718354  0.65594493  1 0.116317
  C  C40  1  0.99480246  0.15771544  0.63364294  1 -0.044589
  C  C41  1  0.84963990  0.16577884  0.64745360  1 -0.091321
  C  C42  1  0.82358707  0.21432358  0.70497075  1 -0.122879
  C  C43  1  0.93973188  0.25758857  0.75009096  1 0.080911
  C  C44  1  0.91767989  0.30698699  0.81126730  1 -0.127771
  C  C45  1  0.03232530  0.34943152  0.85185297  1 -0.03728
  C  C46  1  0.17460980  0.34383135  0.83316747  1 -0.09239
  C  C47  1  0.20053908  0.29496763  0.77621366  1 -0.127192
  C  C48  1  0.08511560  0.25079063  0.73354562  1 0.075877
  C  C49  1  0.10926754  0.19984422  0.67562212  1 -0.123439
  C  C50  1  0.02847795  0.10400657  0.57544819  1 0.645373
  C  C51  1  0.00375654  0.40164179  0.91445998  1 0.652449
  C  C52  1  0.18282152  0.95513397  0.03602739  1 -0.131529
  C  C53  1  0.22068241  0.96317581  0.13248235  1 -0.095649
  C  C54  1  0.12561535  0.99891093  0.17554571  1 -0.025204
  C  C55  1  0.99403870  0.02574610  0.12110284  1 -0.129574
  C  C56  1  0.95183419  0.01800686  0.02180776  1 0.078762
  C  C57  1  0.16713160  0.00711411  0.27983416  1 0.57217
  C  C58  1  0.50487944  0.65761835  0.86622168  1 -0.044143
  C  C59  1  0.65018814  0.66564927  0.85261181  1 -0.090596
  C  C60  1  0.67649487  0.71419490  0.79523585  1 -0.123513
  C  C61  1  0.56051853  0.75748670  0.75005073  1 0.081056
  C  C62  1  0.58264380  0.80676980  0.68878966  1 -0.126979
  C  C63  1  0.46802759  0.84917780  0.64805438  1 -0.038556
  C  C64  1  0.32571064  0.84371249  0.66673163  1 -0.092722
  C  C65  1  0.29972611  0.79497372  0.72380377  1 -0.127415
  C  C66  1  0.41507799  0.75078433  0.76651429  1 0.076493
  C  C67  1  0.39062787  0.69984364  0.82428828  1 -0.12396
  C  C68  1  0.47056239  0.60383479  0.92402696  1 0.643826
  C  C69  1  0.49660648  0.90125015  0.58533690  1 0.653877
  C  C70  1  0.31745974  0.45516812  0.46406138  1 -0.130878
  C  C71  1  0.27956245  0.46322991  0.36761045  1 -0.096005
  C  C72  1  0.37462480  0.49895978  0.32456091  1 -0.026137
  C  C73  1  0.50621533  0.52575144  0.37905376  1 -0.129834
  C  C74  1  0.54847840  0.51802053  0.47833803  1 0.080858
  C  C75  1  0.33294842  0.50722366  0.22033937  1 0.572569
  C  C76  1  0.00521010  0.84229756  0.36638652  1 -0.044223
  C  C77  1  0.15042100  0.83425807  0.35264389  1 -0.091082
  C  C78  1  0.17659428  0.78573418  0.29513855  1 -0.122919
  C  C79  1  0.06048914  0.74248683  0.24993561  1 0.080524
  C  C80  1  0.08252268  0.69322063  0.18857130  1 -0.126384
  C  C81  1  0.96783113  0.65084404  0.14779420  1 -0.038525
  C  C82  1  0.82557140  0.65630956  0.16655953  1 -0.09206
  C  C83  1  0.79970664  0.70504001  0.22373120  1 -0.127614
  C  C84  1  0.91509662  0.74920923  0.26647155  1 0.076291
  C  C85  1  0.89083530  0.80012527  0.32440068  1 -0.123351
  C  C86  1  0.97130039  0.89603644  0.42447625  1 0.645831
  C  C87  1  0.99639691  0.59881831  0.08495340  1 0.654671
  C  C88  1  0.81726122  0.04484427  0.96398771  1 -0.131602
  C  C89  1  0.77939040  0.03680847  0.86751203  1 -0.095922
  C  C90  1  0.87449241  0.00108324  0.82447400  1 -0.025477
  C  C91  1  0.00604878  0.97425038  0.87892858  1 -0.129242
  C  C92  1  0.04830077  0.98196544  0.97821083  1 0.078446
  C  C93  1  0.83295101  0.99287562  0.72025583  1 0.572405
  C  C94  1  0.49444430  0.34212690  0.13362642  1 -0.044895
  C  C95  1  0.34931946  0.33405993  0.14752604  1 -0.090487
  C  C96  1  0.32336987  0.28558260  0.20510107  1 -0.12238
  C  C97  1  0.43955268  0.24237375  0.25022030  1 0.08071
  C  C98  1  0.41753596  0.19308100  0.31144337  1 -0.127169
  C  C99  1  0.53216390  0.15067981  0.35207709  1 -0.037937
  C  C100  1  0.67444386  0.15620184  0.33340116  1 -0.091908
  C  C101  1  0.70040684  0.20498958  0.27637080  1 -0.127745
  C  C102  1  0.58493084  0.24913950  0.23363811  1 0.075719
  C  C103  1  0.60898766  0.30004314  0.17561335  1 -0.12338
  C  C104  1  0.52780085  0.39582830  0.07535262  1 0.646319
  C  C105  1  0.50348559  0.09859272  0.41471381  1 0.653729
  C  C106  1  0.68305519  0.54487168  0.53615521  1 -0.132239
  C  C107  1  0.72098917  0.53689443  0.63260436  1 -0.095796
  C  C108  1  0.62586939  0.50116774  0.67562899  1 -0.02528
  C  C109  1  0.49430987  0.47428791  0.62120458  1 -0.129185
  C  C110  1  0.45205693  0.48200191  0.52190904  1 0.077471
  C  C111  1  0.66728286  0.49301249  0.77988533  1 0.571124
  O  O112  1  0.16366462  0.09619773  0.57213095  1 -0.633089
  O  O113  1  0.92267518  0.06726887  0.52997042  1 -0.702706
  O  O114  1  0.89063442  0.39630471  0.94797424  1 -0.639017
  O  O115  1  0.09205762  0.45012974  0.93168068  1 -0.684567
  O  O116  1  0.08385952  0.04130280  0.31901021  1 -0.628224
  O  O117  1  0.28565917  0.97958307  0.33029980  1 -0.611204
  O  O118  1  0.33507785  0.59590827  0.92663157  1 -0.631772
  O  O119  1  0.57611814  0.56711568  0.96990335  1 -0.703746
  O  O120  1  0.60978474  0.89587923  0.55190632  1 -0.638886
  O  O121  1  0.40824822  0.94972797  0.56789563  1 -0.685934
  O  O122  1  0.41656907  0.54117152  0.18114161  1 -0.629175
  O  O123  1  0.21397559  0.48002883  0.16982026  1 -0.611347
  O  O124  1  0.83600000  0.90384755  0.42755137  1 -0.633025
  O  O125  1  0.07701148  0.93277774  0.47006990  1 -0.703187
  O  O126  1  0.10962895  0.60422472  0.05155769  1 -0.638108
  O  O127  1  0.90802158  0.55035340  0.06740275  1 -0.685502
  O  O128  1  0.91626550  0.95873243  0.68107219  1 -0.628666
  O  O129  1  0.71436196  0.02032081  0.66974354  1 -0.611101
  O  O130  1  0.66291018  0.40383058  0.07195907  1 -0.634351
  O  O131  1  0.42164013  0.43238749  0.02996375  1 -0.702925
  O  O132  1  0.39031427  0.10398739  0.44814460  1 -0.638569
  O  O133  1  0.59166437  0.05005128  0.43210603  1 -0.686424
  O  O134  1  0.58409726  0.45864857  0.81888282  1 -0.627472
  O  O135  1  0.78546506  0.52071313  0.83047131  1 -0.610768
