# generated using pymatgen
data_TiCu2H40C56(N4F3)2
_symmetry_space_group_name_H-M   'P 1'
_cell_length_a   21.80571350
_cell_length_b   21.79747423
_cell_length_c   21.81119907
_cell_angle_alpha   89.99993259
_cell_angle_beta   90.00000463
_cell_angle_gamma   90.00000073
_symmetry_Int_Tables_number   1
_chemical_formula_structural   TiCu2H40C56(N4F3)2
_chemical_formula_sum   'Ti3 Cu6 H120 C168 N24 F18'
_cell_volume   10367.06964626
_cell_formula_units_Z   3
loop_
 _symmetry_equiv_pos_site_id
 _symmetry_equiv_pos_as_xyz
  1  'x, y, z'
loop_
 _atom_site_type_symbol
 _atom_site_label
 _atom_site_symmetry_multiplicity
 _atom_site_fract_x
 _atom_site_fract_y
 _atom_site_fract_z
 _atom_site_occupancy
 _atom_site_charge
  Ti  Ti0  1  0.50000262  0.49999622  0.00000047  1 2.106093
  Ti  Ti1  1  -0.00000492  0.50000168  0.50000049  1 2.105544
  Ti  Ti2  1  0.50000354  -0.00000169  0.49999944  1 2.105964
  Cu  Cu3  1  0.50000025  0.68435160  0.00000532  1 0.458284
  Cu  Cu4  1  0.50000001  0.31564602  0.00000257  1 0.458086
  Cu  Cu5  1  -0.00000155  0.50000098  0.68425486  1 0.463514
  Cu  Cu6  1  -0.00000033  0.50000104  0.31574668  1 0.463727
  Cu  Cu7  1  0.68430506  -0.00000022  0.49999876  1 0.460314
  Cu  Cu8  1  0.31570122  -0.00000013  0.49999586  1 0.456024
  H  H9  1  0.56450407  0.78929707  0.06155995  1 0.061417
  H  H10  1  0.63697582  0.80843090  0.14714004  1 0.110291
  H  H11  1  0.64996288  0.61146702  0.16950037  1 0.118327
  H  H12  1  0.57739352  0.60032314  0.08220411  1 0.111512
  H  H13  1  0.74845927  0.64294195  0.19879153  1 0.10044
  H  H14  1  0.43549990  0.21070196  0.06155872  1 0.061309
  H  H15  1  0.36302718  0.19156873  0.14713772  1 0.110207
  H  H16  1  0.35004188  0.38853487  0.16949519  1 0.118153
  H  H17  1  0.42261249  0.39967565  0.08219989  1 0.11155
  H  H18  1  0.25154282  0.35706056  0.19878720  1 0.10046
  H  H19  1  0.43549948  0.78929674  0.93843925  1 0.061398
  H  H20  1  0.36302582  0.80842998  0.85286103  1 0.110251
  H  H21  1  0.35003963  0.61146601  0.83050177  1 0.118158
  H  H22  1  0.42261127  0.60032279  0.91779645  1 0.111478
  H  H23  1  0.25153928  0.64293916  0.80121090  1 0.100424
  H  H24  1  0.56450160  0.21070081  0.93844027  1 0.061329
  H  H25  1  0.63697473  0.19156745  0.85286037  1 0.110297
  H  H26  1  0.64996058  0.38853532  0.83050231  1 0.118089
  H  H27  1  0.57739001  0.39967644  0.91779840  1 0.111542
  H  H28  1  0.74845729  0.35706097  0.80121209  1 0.100463
  H  H29  1  0.06133057  0.56430008  0.78915493  1 0.060908
  H  H30  1  0.14692611  0.63680053  0.80828642  1 0.110688
  H  H31  1  0.16928912  0.64980650  0.61141551  1 0.118194
  H  H32  1  0.08197861  0.57719362  0.60029802  1 0.111435
  H  H33  1  0.19863847  0.74836816  0.64284290  1 0.100677
  H  H34  1  0.06133273  0.43569977  0.21084462  1 0.060909
  H  H35  1  0.14692817  0.36320007  0.19171453  1 0.110683
  H  H36  1  0.16929207  0.35019329  0.38858129  1 0.118246
  H  H37  1  0.08198230  0.42280521  0.39970073  1 0.11146
  H  H38  1  0.19864181  0.25163226  0.35715373  1 0.100618
  H  H39  1  0.93866426  0.43570062  0.78915612  1 0.060951
  H  H40  1  0.85306868  0.36319973  0.80828810  1 0.110717
  H  H41  1  0.83070546  0.35019266  0.61141589  1 0.118253
  H  H42  1  0.91801556  0.42280669  0.60029763  1 0.111432
  H  H43  1  0.80136033  0.25163171  0.64284263  1 0.100692
  H  H44  1  0.93866396  0.56430183  0.21084515  1 0.06099
  H  H45  1  0.85306861  0.63680319  0.19171608  1 0.110772
  H  H46  1  0.83070628  0.64980921  0.38858305  1 0.11825
  H  H47  1  0.91801583  0.57719533  0.39970247  1 0.111417
  H  H48  1  0.80136032  0.74836943  0.35715833  1 0.100691
  H  H49  1  0.78924214  0.06131368  0.56427488  1 0.06044
  H  H50  1  0.80838497  0.14692647  0.63674866  1 0.110678
  H  H51  1  0.61146772  0.16930855  0.64976860  1 0.1182
  H  H52  1  0.60033359  0.08198756  0.57718437  1 0.111372
  H  H53  1  0.64298370  0.19868195  0.74826450  1 0.100631
  H  H54  1  0.21075946  0.06131594  0.43572359  1 0.060552
  H  H55  1  0.19161982  0.14692772  0.36324959  1 0.110725
  H  H56  1  0.38852943  0.16931004  0.35023020  1 0.118233
  H  H57  1  0.39966608  0.08199018  0.42281415  1 0.111373
  H  H58  1  0.35701509  0.19868428  0.25173483  1 0.100659
  H  H59  1  0.78924128  0.93868620  0.43572760  1 0.060477
  H  H60  1  0.80838452  0.85307412  0.36325328  1 0.110699
  H  H61  1  0.61146913  0.83069139  0.35023306  1 0.118164
  H  H62  1  0.60033424  0.91801178  0.42281790  1 0.111353
  H  H63  1  0.64298536  0.80131839  0.25173865  1 0.100656
  H  H64  1  0.21075909  0.93868559  0.56427488  1 0.060517
  H  H65  1  0.19161863  0.85307285  0.63674835  1 0.110702
  H  H66  1  0.38852817  0.83068940  0.64976871  1 0.118212
  H  H67  1  0.39966583  0.91801004  0.57718543  1 0.11133
  H  H68  1  0.35701306  0.80131546  0.74826184  1 0.100722
  H  H69  1  0.43550061  0.21070145  0.93844033  1 0.061332
  H  H70  1  0.36302721  0.19156848  0.85286140  1 0.110228
  H  H71  1  0.35004175  0.38853553  0.83050398  1 0.118141
  H  H72  1  0.42261310  0.39967623  0.91779927  1 0.11151
  H  H73  1  0.25154207  0.35706189  0.80121345  1 0.100427
  H  H74  1  0.56450349  0.78929726  0.93843941  1 0.061435
  H  H75  1  0.63697628  0.80843095  0.85285983  1 0.11027
  H  H76  1  0.64996305  0.61146625  0.83049970  1 0.118315
  H  H77  1  0.57739268  0.60032242  0.91779569  1 0.11148
  H  H78  1  0.74846011  0.64294006  0.80120945  1 0.10041
  H  H79  1  0.56450235  0.21070129  0.06155879  1 0.061341
  H  H80  1  0.63697476  0.19156753  0.14713876  1 0.110278
  H  H81  1  0.64996038  0.38853456  0.16949686  1 0.118119
  H  H82  1  0.57739058  0.39967581  0.08220079  1 0.111507
  H  H83  1  0.74845654  0.35705954  0.19878852  1 0.100467
  H  H84  1  0.43549889  0.78929638  0.06156026  1 0.061366
  H  H85  1  0.36302625  0.80842990  0.14713878  1 0.110243
  H  H86  1  0.35003966  0.61146683  0.16949840  1 0.118251
  H  H87  1  0.42261035  0.60032347  0.08220353  1 0.111481
  H  H88  1  0.25154009  0.64294104  0.19879018  1 0.100381
  H  H89  1  0.93866322  0.43569964  0.21084438  1 0.060987
  H  H90  1  0.85306776  0.36319907  0.19171447  1 0.110771
  H  H91  1  0.83070425  0.35019206  0.38858215  1 0.118255
  H  H92  1  0.91801389  0.42280530  0.39970186  1 0.111428
  H  H93  1  0.80135854  0.25163138  0.35715620  1 0.100695
  H  H94  1  0.93866520  0.56430019  0.78915541  1 0.060936
  H  H95  1  0.85306976  0.63680172  0.80828646  1 0.110677
  H  H96  1  0.83070740  0.64980774  0.61141471  1 0.118274
  H  H97  1  0.91801755  0.57719338  0.60029709  1 0.111396
  H  H98  1  0.80136191  0.74836906  0.64284032  1 0.100675
  H  H99  1  0.06133212  0.56430177  0.21084538  1 0.060935
  H  H100  1  0.14692747  0.63680219  0.19171613  1 0.110716
  H  H101  1  0.16929016  0.64980775  0.38858222  1 0.118252
  H  H102  1  0.08198028  0.57719546  0.39970138  1 0.111432
  H  H103  1  0.19864016  0.74836868  0.35715588  1 0.100673
  H  H104  1  0.06133144  0.43570064  0.78915570  1 0.060917
  H  H105  1  0.14692711  0.36320077  0.80828816  1 0.110674
  H  H106  1  0.16929103  0.35019386  0.61141669  1 0.118206
  H  H107  1  0.08198062  0.42280649  0.60029867  1 0.111406
  H  H108  1  0.19863995  0.25163258  0.64284506  1 0.100704
  H  H109  1  0.21075968  0.93868492  0.43572527  1 0.060518
  H  H110  1  0.19161944  0.85307288  0.36325156  1 0.110733
  H  H111  1  0.38852807  0.83068970  0.35023149  1 0.118208
  H  H112  1  0.39966559  0.91800980  0.42281501  1 0.111336
  H  H113  1  0.35701339  0.80131588  0.25173806  1 0.100701
  H  H114  1  0.78924187  0.93868721  0.56427269  1 0.060488
  H  H115  1  0.80838517  0.85307422  0.63674652  1 0.11069
  H  H116  1  0.61146912  0.83069109  0.64976705  1 0.118171
  H  H117  1  0.60033392  0.91801221  0.57718275  1 0.111378
  H  H118  1  0.64298571  0.80131807  0.74826136  1 0.100659
  H  H119  1  0.21075903  0.06131541  0.56427683  1 0.060533
  H  H120  1  0.19161907  0.14692775  0.63675050  1 0.110717
  H  H121  1  0.38852957  0.16931052  0.64977020  1 0.11825
  H  H122  1  0.39966641  0.08199024  0.57718665  1 0.111306
  H  H123  1  0.35701498  0.19868457  0.74826487  1 0.10069
  H  H124  1  0.78924170  0.06131435  0.43572581  1 0.060518
  H  H125  1  0.80838429  0.14692637  0.36325131  1 0.110708
  H  H126  1  0.61146769  0.16930800  0.35023178  1 0.118197
  H  H127  1  0.60033402  0.08198760  0.42281671  1 0.111366
  H  H128  1  0.64298354  0.19868162  0.25173534  1 0.100615
  C  C129  1  0.58428031  0.75093845  0.08700467  1 0.070633
  C  C130  1  0.62430826  0.76151284  0.13523030  1 -0.18798
  C  C131  1  0.64948196  0.71132054  0.16699178  1 0.10197
  C  C132  1  0.63263960  0.65247950  0.14664148  1 -0.173698
  C  C133  1  0.59180148  0.64577883  0.09798101  1 0.10438
  C  C134  1  0.69112021  0.72099441  0.21925308  1 0.070151
  C  C135  1  0.74087829  0.68158006  0.22963923  1 -0.180125
  C  C136  1  0.41572399  0.24906103  0.08700317  1 0.071048
  C  C137  1  0.37569463  0.23848778  0.13522849  1 -0.188082
  C  C138  1  0.35052075  0.28868042  0.16698861  1 0.102143
  C  C139  1  0.36736471  0.34752076  0.14663764  1 -0.173507
  C  C140  1  0.40820390  0.35422011  0.09797756  1 0.104347
  C  C141  1  0.30888103  0.27900794  0.21924946  1 0.070132
  C  C142  1  0.25912277  0.31842276  0.22963530  1 -0.180138
  C  C143  1  0.41572318  0.75093779  0.91299517  1 0.070604
  C  C144  1  0.37569313  0.76151175  0.86477037  1 -0.187872
  C  C145  1  0.35051876  0.71131935  0.83300968  1 0.101982
  C  C146  1  0.36736284  0.65247875  0.85336021  1 -0.173514
  C  C147  1  0.40820271  0.64577855  0.90201992  1 0.104464
  C  C148  1  0.30887847  0.72099215  0.78074861  1 0.070114
  C  C149  1  0.25911969  0.68157754  0.77036270  1 -0.180077
  C  C150  1  0.58427752  0.24906132  0.91299732  1 0.070929
  C  C151  1  0.62430712  0.23848670  0.86477147  1 -0.188072
  C  C152  1  0.64947980  0.28868015  0.83301177  1 0.102145
  C  C153  1  0.63263741  0.34752128  0.85336167  1 -0.173445
  C  C154  1  0.59179808  0.35421992  0.90202263  1 0.104401
  C  C155  1  0.69111877  0.27900690  0.78074988  1 0.070128
  C  C156  1  0.74087724  0.31842171  0.77036314  1 -0.18006
  C  C157  1  0.08681940  0.58412523  0.75084648  1 0.071904
  C  C158  1  0.13504839  0.62416967  0.76139036  1 -0.189256
  C  C159  1  0.16680507  0.64937552  0.71122410  1 0.102426
  C  C160  1  0.14645703  0.63251132  0.65242160  1 -0.173554
  C  C161  1  0.09780251  0.59165824  0.64570745  1 0.104849
  C  C162  1  0.21905162  0.69103823  0.72087824  1 0.070232
  C  C163  1  0.22947501  0.74079196  0.68146867  1 -0.180941
  C  C164  1  0.08682176  0.41587523  0.24915267  1 0.071892
  C  C165  1  0.13505063  0.37583146  0.23860899  1 -0.189268
  C  C166  1  0.16680825  0.35062516  0.28877415  1 0.102669
  C  C167  1  0.14645992  0.36748909  0.34757655  1 -0.173708
  C  C168  1  0.09780557  0.40834166  0.35429167  1 0.104873
  C  C169  1  0.21905470  0.30896257  0.27911926  1 0.070144
  C  C170  1  0.22947784  0.25920824  0.31852798  1 -0.180774
  C  C171  1  0.91317558  0.41587686  0.75084676  1 0.071891
  C  C172  1  0.86494662  0.37583163  0.76139167  1 -0.189333
  C  C173  1  0.83319130  0.35062611  0.71122470  1 0.102663
  C  C174  1  0.85353790  0.36748995  0.65242163  1 -0.173688
  C  C175  1  0.90219269  0.40834346  0.64570800  1 0.104856
  C  C176  1  0.78094566  0.30896199  0.72087914  1 0.070217
  C  C177  1  0.77052278  0.25920741  0.68147000  1 -0.180798
  C  C178  1  0.91317538  0.58412606  0.24915383  1 0.071735
  C  C179  1  0.86494732  0.62417091  0.23861047  1 -0.189421
  C  C180  1  0.83319140  0.64937705  0.28877667  1 0.102673
  C  C181  1  0.85353909  0.63251252  0.34757896  1 -0.173766
  C  C182  1  0.90219286  0.59165933  0.35429313  1 0.104877
  C  C183  1  0.78094623  0.69104046  0.27912279  1 0.070259
  C  C184  1  0.77052379  0.74079401  0.31853263  1 -0.180943
  C  C185  1  0.75092761  0.08681804  0.58407660  1 0.073119
  C  C186  1  0.76148121  0.13506027  0.62409725  1 -0.189845
  C  C187  1  0.71131748  0.16685639  0.64928643  1 0.103153
  C  C188  1  0.65248786  0.14648891  0.63245477  1 -0.17382
  C  C189  1  0.64576020  0.09781753  0.59162384  1 0.104926
  C  C190  1  0.72102550  0.21911800  0.69090883  1 0.069971
  C  C191  1  0.68163525  0.22951538  0.74065969  1 -0.180141
  C  C192  1  0.24907354  0.08681942  0.41592179  1 0.073053
  C  C193  1  0.23852171  0.13506090  0.37590111  1 -0.190015
  C  C194  1  0.28868303  0.16685860  0.35071069  1 0.1033
  C  C195  1  0.34751138  0.14648984  0.36754367  1 -0.174069
  C  C196  1  0.35424059  0.09781942  0.40837436  1 0.104934
  C  C197  1  0.27897477  0.21911961  0.30908918  1 0.070009
  C  C198  1  0.31836502  0.22951664  0.25933887  1 -0.180365
  C  C199  1  0.75092814  0.91318081  0.41592497  1 0.073052
  C  C200  1  0.76148114  0.86493968  0.37590425  1 -0.189936
  C  C201  1  0.71131810  0.83314296  0.35071443  1 0.10314
  C  C202  1  0.65248865  0.85351082  0.36754654  1 -0.173849
  C  C203  1  0.64576009  0.90218118  0.40837730  1 0.10495
  C  C204  1  0.72102633  0.78088183  0.30909288  1 0.069884
  C  C205  1  0.68163588  0.77048567  0.25934294  1 -0.180323
  C  C206  1  0.24907312  0.91318116  0.58407599  1 0.073056
  C  C207  1  0.23852056  0.86493933  0.62409611  1 -0.189995
  C  C208  1  0.28868150  0.83314097  0.64928638  1 0.103175
  C  C209  1  0.34751046  0.85350961  0.63245415  1 -0.174004
  C  C210  1  0.35424003  0.90218041  0.59162401  1 0.105018
  C  C211  1  0.27897270  0.78088000  0.69090772  1 0.070033
  C  C212  1  0.31836239  0.77048299  0.74065788  1 -0.180477
  C  C213  1  0.41572464  0.24906133  0.91299678  1 0.070969
  C  C214  1  0.37569458  0.23848769  0.86477142  1 -0.188112
  C  C215  1  0.35052088  0.28868090  0.83301194  1 0.102211
  C  C216  1  0.36736475  0.34752138  0.85336230  1 -0.173522
  C  C217  1  0.40820461  0.35422017  0.90202264  1 0.104435
  C  C218  1  0.30888061  0.27900847  0.78075072  1 0.070141
  C  C219  1  0.25912182  0.31842337  0.77036463  1 -0.180087
  C  C220  1  0.58427978  0.75093768  0.91299579  1 0.070681
  C  C221  1  0.62430867  0.76151265  0.86477022  1 -0.18794
  C  C222  1  0.64948206  0.71132008  0.83300927  1 0.101985
  C  C223  1  0.63263967  0.65247886  0.85335915  1 -0.173664
  C  C224  1  0.59180070  0.64577875  0.90201976  1 0.104352
  C  C225  1  0.69112106  0.72099370  0.78074744  1 0.070167
  C  C226  1  0.74087944  0.68157918  0.77036107  1 -0.180083
  C  C227  1  0.58427828  0.24906086  0.08700260  1 0.070882
  C  C228  1  0.62430707  0.23848669  0.13522854  1 -0.18805
  C  C229  1  0.64947999  0.28867962  0.16698882  1 0.102133
  C  C230  1  0.63263748  0.34752054  0.14663831  1 -0.173428
  C  C231  1  0.59179874  0.35421979  0.09797757  1 0.104434
  C  C232  1  0.69111837  0.27900634  0.21925038  1 0.070174
  C  C233  1  0.74087643  0.31842105  0.22963681  1 -0.180159
  C  C234  1  0.41572266  0.75093837  0.08700543  1 0.070824
  C  C235  1  0.37569351  0.76151183  0.13523026  1 -0.18805
  C  C236  1  0.35051874  0.71131989  0.16699150  1 0.101968
  C  C237  1  0.36736272  0.65247940  0.14664056  1 -0.173577
  C  C238  1  0.40820173  0.64577868  0.09798096  1 0.10441
  C  C239  1  0.30887916  0.72099282  0.21925202  1 0.070073
  C  C240  1  0.25912068  0.68157851  0.22963768  1 -0.180093
  C  C241  1  0.91317456  0.41587582  0.24915329  1 0.071806
  C  C242  1  0.86494602  0.37583123  0.23860922  1 -0.189416
  C  C243  1  0.83318981  0.35062522  0.28877518  1 0.102685
  C  C244  1  0.85353694  0.36748949  0.34757779  1 -0.173659
  C  C245  1  0.90219130  0.40834238  0.35429217  1 0.104864
  C  C246  1  0.78094463  0.30896140  0.27912057  1 0.070135
  C  C247  1  0.77052194  0.25920689  0.31852959  1 -0.180751
  C  C248  1  0.91317650  0.58412448  0.75084625  1 0.07181
  C  C249  1  0.86494805  0.62416989  0.76139034  1 -0.189211
  C  C250  1  0.83319288  0.64937557  0.71122306  1 0.102462
  C  C251  1  0.85353991  0.63251122  0.65242033  1 -0.173685
  C  C252  1  0.90219417  0.59165754  0.64570701  1 0.104945
  C  C253  1  0.78094742  0.69103939  0.72087678  1 0.070325
  C  C254  1  0.77052458  0.74079324  0.68146687  1 -0.180893
  C  C255  1  0.08682111  0.58412659  0.24915326  1 0.071886
  C  C256  1  0.13504946  0.62417076  0.23861037  1 -0.189337
  C  C257  1  0.16680666  0.64937698  0.28877566  1 0.102523
  C  C258  1  0.14645814  0.63251242  0.34757769  1 -0.173736
  C  C259  1  0.09780425  0.59165974  0.35429259  1 0.104902
  C  C260  1  0.21905286  0.69103942  0.27912155  1 0.070166
  C  C261  1  0.22947589  0.74079279  0.31853087  1 -0.180897
  C  C262  1  0.08682025  0.41587600  0.75084705  1 0.071895
  C  C263  1  0.13504976  0.37583182  0.76139191  1 -0.189278
  C  C264  1  0.16680665  0.35062596  0.71122584  1 0.102683
  C  C265  1  0.14645891  0.36748968  0.65242288  1 -0.173676
  C  C266  1  0.09780387  0.40834252  0.64570852  1 0.104945
  C  C267  1  0.21905332  0.30896311  0.72088053  1 0.070174
  C  C268  1  0.22947693  0.25920870  0.68147150  1 -0.180833
  C  C269  1  0.24907295  0.91318067  0.41592292  1 0.073115
  C  C270  1  0.23852119  0.86493929  0.37590298  1 -0.190043
  C  C271  1  0.28868191  0.83314094  0.35071233  1 0.103179
  C  C272  1  0.34751049  0.85350985  0.36754509  1 -0.174034
  C  C273  1  0.35424030  0.90218021  0.40837503  1 0.104957
  C  C274  1  0.27897335  0.78088033  0.30909132  1 0.069969
  C  C275  1  0.31836353  0.77048387  0.25934173  1 -0.180407
  C  C276  1  0.75092807  0.91318185  0.58407471  1 0.073021
  C  C277  1  0.76148175  0.86493990  0.62409501  1 -0.189827
  C  C278  1  0.71131845  0.83314319  0.64928442  1 0.103032
  C  C279  1  0.65248867  0.85351072  0.63245291  1 -0.173831
  C  C280  1  0.64576030  0.90218194  0.59162256  1 0.104959
  C  C281  1  0.72102703  0.78088159  0.69090629  1 0.069923
  C  C282  1  0.68163699  0.77048487  0.74065684  1 -0.180261
  C  C283  1  0.24907381  0.08681918  0.58407736  1 0.073088
  C  C284  1  0.23852131  0.13506086  0.62409813  1 -0.190021
  C  C285  1  0.28868255  0.16685861  0.64928815  1 0.103284
  C  C286  1  0.34751138  0.14649020  0.63245579  1 -0.174079
  C  C287  1  0.35424040  0.09781942  0.59162498  1 0.104982
  C  C288  1  0.27897424  0.21911971  0.69090988  1 0.070001
  C  C289  1  0.31836415  0.22951727  0.74066054  1 -0.180355
  C  C290  1  0.75092775  0.08681889  0.41592365  1 0.07302
  C  C291  1  0.76148063  0.13506030  0.37590233  1 -0.189883
  C  C292  1  0.71131718  0.16685653  0.35071256  1 0.10316
  C  C293  1  0.65248790  0.14648857  0.36754494  1 -0.173871
  C  C294  1  0.64576006  0.09781791  0.40837643  1 0.10493
  C  C295  1  0.72102492  0.21911785  0.30909034  1 0.070033
  C  C296  1  0.68163438  0.22951466  0.25933993  1 -0.180228
  N  N297  1  0.56755567  0.69446943  0.06835214  1 -0.229588
  N  N298  1  0.43244944  0.30552915  0.06835026  1 -0.229699
  N  N299  1  0.43244910  0.69446946  0.93164759  1 -0.229678
  N  N300  1  0.56755298  0.30552903  0.93164954  1 -0.229693
  N  N301  1  0.06820858  0.56744447  0.69439517  1 -0.23023
  N  N302  1  0.06821054  0.43255612  0.30560437  1 -0.230295
  N  N303  1  0.93178596  0.43255691  0.69439573  1 -0.23014
  N  N304  1  0.93178674  0.56744465  0.30560524  1 -0.230198
  N  N305  1  0.69445620  0.06822526  0.56741134  1 -0.230447
  N  N306  1  0.30554536  0.06822590  0.43258834  1 -0.230588
  N  N307  1  0.69445611  0.93177401  0.43259060  1 -0.230431
  N  N308  1  0.30554516  0.93177455  0.56740986  1 -0.230654
  N  N309  1  0.43244996  0.30552902  0.93164935  1 -0.229684
  N  N310  1  0.56755473  0.69446915  0.93164784  1 -0.229618
  N  N311  1  0.56755352  0.30552900  0.06835009  1 -0.229664
  N  N312  1  0.43244814  0.69446958  0.06835258  1 -0.229717
  N  N313  1  0.93178562  0.43255660  0.30560456  1 -0.230194
  N  N314  1  0.93178720  0.56744387  0.69439518  1 -0.230206
  N  N315  1  0.06820943  0.56744518  0.30560503  1 -0.230303
  N  N316  1  0.06820979  0.43255617  0.69439590  1 -0.230208
  N  N317  1  0.30554525  0.93177440  0.43258919  1 -0.230666
  N  N318  1  0.69445620  0.93177479  0.56740960  1 -0.230452
  N  N319  1  0.30554535  0.06822598  0.56741111  1 -0.230561
  N  N320  1  0.69445619  0.06822570  0.43258939  1 -0.230435
  F  F321  1  0.50000328  0.58762176  0.00000064  1 -0.580359
  F  F322  1  0.50000328  0.41236849  0.00000078  1 -0.579947
  F  F323  1  -0.00000405  0.50000253  0.58749338  1 -0.580537
  F  F324  1  -0.00000425  0.50000216  0.41250711  1 -0.580544
  F  F325  1  0.58751027  -0.00000384  0.49999935  1 -0.580264
  F  F326  1  0.41249478  -0.00000363  0.49999907  1 -0.579892
  F  F327  1  0.56126603  0.49999145  0.06162225  1 -0.622002
  F  F328  1  0.43873870  0.49999134  0.06162142  1 -0.621985
  F  F329  1  0.43873861  0.49999146  0.93837964  1 -0.621985
  F  F330  1  0.56126623  0.49999147  0.93837899  1 -0.621971
  F  F331  1  0.06163340  0.56129051  0.50000251  1 -0.621625
  F  F332  1  0.06163329  0.43871278  0.50000292  1 -0.62173
  F  F333  1  0.93835739  0.43871227  0.50000192  1 -0.621634
  F  F334  1  0.93835724  0.56129092  0.50000186  1 -0.621561
  F  F335  1  0.50000891  0.06166108  0.56125127  1 -0.621855
  F  F336  1  0.50000883  0.06166086  0.43874708  1 -0.621769
  F  F337  1  0.50000919  0.93833566  0.43874772  1 -0.62171
  F  F338  1  0.50000909  0.93833591  0.56125144  1 -0.621741
