# generated using pymatgen
data_ZnH14C20N(O2F3)2
_symmetry_space_group_name_H-M   'P 1'
_cell_length_a   19.26900218
_cell_length_b   19.26900229
_cell_length_c   27.63695499
_cell_angle_alpha   110.40116706
_cell_angle_beta   110.40116216
_cell_angle_gamma   90.00176087
_symmetry_Int_Tables_number   1
_chemical_formula_structural   ZnH14C20N(O2F3)2
_chemical_formula_sum   'Zn8 H112 C160 N8 O32 F48'
_cell_volume   8927.81955345
_cell_formula_units_Z   8
loop_
 _symmetry_equiv_pos_site_id
 _symmetry_equiv_pos_as_xyz
  1  'x, y, z'
loop_
 _atom_site_type_symbol
 _atom_site_label
 _atom_site_symmetry_multiplicity
 _atom_site_fract_x
 _atom_site_fract_y
 _atom_site_fract_z
 _atom_site_occupancy
 _atom_site_charge
  Zn  Zn0  1  0.50545925  0.43172872  0.51091685  1 0.829377
  Zn  Zn1  1  0.43172870  0.50545924  0.01091684  1 0.829379
  Zn  Zn2  1  0.50543523  0.07916407  0.51088541  1 0.829024
  Zn  Zn3  1  0.92083595  0.49456477  0.98911460  1 0.82902
  Zn  Zn4  1  0.07916407  0.50543524  0.01088540  1 0.829023
  Zn  Zn5  1  0.56827128  0.49454077  0.98908316  1 0.829371
  Zn  Zn6  1  0.49454076  0.56827131  0.48908316  1 0.829371
  Zn  Zn7  1  0.49456476  0.92083593  0.48911459  1 0.829037
  H  H8  1  0.76833545  0.51909595  0.91335145  1 0.099795
  H  H9  1  0.74982297  0.82307675  0.19116074  1 0.108374
  H  H10  1  0.58213468  0.30711562  0.38277820  1 0.102325
  H  H11  1  0.25018330  0.63192064  0.80884485  1 0.108525
  H  H12  1  0.64502032  0.51910533  0.91335515  1 0.100032
  H  H13  1  0.16937918  0.34463285  0.20525148  1 0.110479
  H  H14  1  0.38006789  0.80010117  0.47697639  1 0.105755
  H  H15  1  0.32311403  0.40309805  0.02302154  1 0.104996
  H  H16  1  0.51909593  0.76833545  0.41335145  1 0.099795
  H  H17  1  0.74981669  0.36807937  0.19115516  1 0.108525
  H  H18  1  0.67687873  0.38006562  0.97697751  1 0.105371
  H  H19  1  0.40310115  0.19989996  0.52302802  1 0.10594
  H  H20  1  0.73548077  0.15094692  0.63085617  1 0.108229
  H  H21  1  0.26450122  0.52006978  0.36913567  1 0.107605
  H  H22  1  0.17692326  0.25017702  0.30883927  1 0.108375
  H  H23  1  0.53590064  0.86062282  0.20526394  1 0.110672
  H  H24  1  0.41785177  0.92435238  0.61722414  1 0.102356
  H  H25  1  0.61993438  0.32312126  0.52302249  1 0.10536
  H  H26  1  0.64502587  0.39424891  0.91335658  1 0.099868
  H  H27  1  0.84905307  0.26451923  0.86914384  1 0.108231
  H  H28  1  0.19989882  0.61993211  0.02302361  1 0.105754
  H  H29  1  0.72021858  0.48604386  0.06374207  1 0.09977
  H  H30  1  0.47992286  0.39535721  0.13086427  1 0.107838
  H  H31  1  0.48604867  0.84351928  0.56374345  1 0.099601
  H  H32  1  0.47993023  0.73549878  0.13086433  1 0.107603
  H  H33  1  0.36807935  0.74981670  0.69115516  1 0.108524
  H  H34  1  0.86062282  0.53590065  0.70526393  1 0.110673
  H  H35  1  0.82307536  0.94134988  0.69115801  1 0.108692
  H  H36  1  0.34462434  0.53589738  0.70526012  1 0.108972
  H  H37  1  0.67688597  0.59690197  0.97697846  1 0.104991
  H  H38  1  0.40309804  0.32311403  0.52302154  1 0.104995
  H  H39  1  0.84351927  0.48604869  0.06374345  1 0.099601
  H  H40  1  0.15095149  0.39537034  0.13085392  1 0.107958
  H  H41  1  0.83062239  0.13938778  0.79474201  1 0.110761
  H  H42  1  0.92435237  0.41785179  0.11722415  1 0.102359
  H  H43  1  0.84904849  0.60462968  0.86914608  1 0.107968
  H  H44  1  0.59689885  0.80010005  0.47697197  1 0.105941
  H  H45  1  0.30711652  0.30063788  0.88278054  1 0.102253
  H  H46  1  0.05864117  0.63192896  0.80884078  1 0.108185
  H  H47  1  0.69936392  0.92434651  0.61721936  1 0.101727
  H  H48  1  0.60574854  0.23166190  0.58664359  1 0.099411
  H  H49  1  0.13938778  0.83062238  0.29474201  1 0.110761
  H  H50  1  0.27978142  0.51395615  0.93625792  1 0.09977
  H  H51  1  0.51910532  0.64502031  0.41335514  1 0.100036
  H  H52  1  0.48089468  0.35497970  0.58664486  1 0.100036
  H  H53  1  0.60462966  0.84904851  0.36914609  1 0.107958
  H  H54  1  0.92434650  0.69936392  0.11721935  1 0.101741
  H  H55  1  0.38006562  0.67687875  0.47697752  1 0.10536
  H  H56  1  0.80010005  0.59689886  0.97697198  1 0.105939
  H  H57  1  0.46409935  0.13937718  0.79473606  1 0.110673
  H  H58  1  0.15647804  0.42229063  0.93626329  1 0.099816
  H  H59  1  0.83062085  0.65536716  0.79474852  1 0.110479
  H  H60  1  0.46410261  0.65537565  0.79473988  1 0.108971
  H  H61  1  0.82307675  0.74982297  0.69116074  1 0.108375
  H  H62  1  0.84352195  0.57770938  0.06373672  1 0.099816
  H  H63  1  0.94134988  0.82307537  0.19115801  1 0.108691
  H  H64  1  0.65536715  0.83062083  0.29474853  1 0.110479
  H  H65  1  0.86061222  0.16937762  0.70525800  1 0.11076
  H  H66  1  0.13937718  0.46409935  0.29473607  1 0.110673
  H  H67  1  0.51395132  0.15648072  0.43625655  1 0.099601
  H  H68  1  0.42229062  0.15647804  0.43626329  1 0.099816
  H  H69  1  0.26451923  0.84905310  0.36914384  1 0.108228
  H  H70  1  0.07564760  0.58214823  0.88277585  1 0.102353
  H  H71  1  0.69936212  0.69288349  0.61721947  1 0.10225
  H  H72  1  0.30063787  0.30711650  0.38278053  1 0.102252
  H  H73  1  0.35497412  0.60575110  0.08664342  1 0.099856
  H  H74  1  0.17692462  0.05865012  0.30884199  1 0.108692
  H  H75  1  0.48604385  0.72021858  0.56374207  1 0.099769
  H  H76  1  0.05865013  0.17692463  0.80884199  1 0.108691
  H  H77  1  0.30063608  0.07565350  0.38278064  1 0.10174
  H  H78  1  0.59690196  0.67688597  0.47697846  1 0.104995
  H  H79  1  0.69288350  0.69936213  0.11721946  1 0.102272
  H  H80  1  0.36807104  0.94135885  0.69115923  1 0.108186
  H  H81  1  0.16937762  0.86061222  0.20525799  1 0.110761
  H  H82  1  0.53589738  0.34462436  0.20526012  1 0.108971
  H  H83  1  0.63192064  0.25018331  0.30884484  1 0.108525
  H  H84  1  0.25017702  0.17692326  0.80883926  1 0.108375
  H  H85  1  0.39535720  0.47992286  0.63086428  1 0.107841
  H  H86  1  0.15094691  0.73548078  0.13085616  1 0.108226
  H  H87  1  0.07565348  0.30063608  0.88278064  1 0.101726
  H  H88  1  0.60575109  0.35497414  0.58664342  1 0.099855
  H  H89  1  0.80010116  0.38006790  0.97697639  1 0.105755
  H  H90  1  0.94135885  0.36807104  0.19115923  1 0.108186
  H  H91  1  0.52007715  0.60464281  0.86913573  1 0.107843
  H  H92  1  0.51395616  0.27978141  0.43625793  1 0.09977
  H  H93  1  0.19989995  0.40310115  0.02302802  1 0.105941
  H  H94  1  0.60464280  0.52007715  0.36913572  1 0.10784
  H  H95  1  0.72021120  0.57770922  0.06373740  1 0.099973
  H  H96  1  0.42229079  0.27978880  0.43626260  1 0.09997
  H  H97  1  0.30711562  0.58213468  0.88277820  1 0.102323
  H  H98  1  0.58214822  0.07564763  0.38277586  1 0.102357
  H  H99  1  0.23166454  0.48090407  0.08664855  1 0.099795
  H  H100  1  0.15648072  0.51395132  0.93625655  1 0.099596
  H  H101  1  0.63192896  0.05864115  0.30884077  1 0.108186
  H  H102  1  0.48090405  0.23166456  0.58664855  1 0.099795
  H  H103  1  0.39425147  0.76833811  0.41335641  1 0.099411
  H  H104  1  0.76833810  0.39425146  0.91335641  1 0.09941
  H  H105  1  0.65537565  0.46410262  0.29473988  1 0.108971
  H  H106  1  0.69288440  0.41786533  0.11722179  1 0.102326
  H  H107  1  0.57770937  0.84352196  0.56373671  1 0.099816
  H  H108  1  0.27978880  0.42229079  0.93626259  1 0.09997
  H  H109  1  0.73549878  0.47993021  0.63086433  1 0.107604
  H  H110  1  0.61993210  0.19989883  0.52302361  1 0.105755
  H  H111  1  0.23166188  0.60574854  0.08664359  1 0.099411
  H  H112  1  0.39424890  0.64502587  0.41335659  1 0.099856
  H  H113  1  0.35497968  0.48089469  0.08664485  1 0.100037
  H  H114  1  0.39537032  0.15095151  0.63085392  1 0.107966
  H  H115  1  0.57770921  0.72021120  0.56373740  1 0.099969
  H  H116  1  0.52006980  0.26450122  0.86913567  1 0.107602
  H  H117  1  0.34463283  0.16937917  0.70525149  1 0.110479
  H  H118  1  0.41786532  0.69288440  0.61722181  1 0.102324
  H  H119  1  0.32312126  0.61993439  0.02302248  1 0.10536
  C  C120  1  0.05725465  0.35405240  0.20437426  1 0.086555
  C  C121  1  0.65848724  0.23477152  0.21979881  1 0.680751
  C  C122  1  0.97802016  0.73513111  0.13699834  1 -0.078001
  C  C123  1  0.26486737  0.34100934  0.36300359  1 -0.080736
  C  C124  1  0.75551986  0.53907969  0.64460651  1 -0.081413
  C  C125  1  0.58497883  0.23191743  0.54434517  1 -0.088305
  C  C126  1  0.23475907  0.06131202  0.71977911  1 0.677953
  C  C127  1  0.06131387  0.98500980  0.21978994  1 0.681454
  C  C128  1  0.19524704  0.01197248  0.32118749  1 -0.138329
  C  C129  1  0.34151277  0.76522848  0.78020119  1 0.680752
  C  C130  1  0.23191741  0.58497883  0.04434517  1 -0.088305
  C  C131  1  0.58971734  0.41671928  0.38010860  1 -0.028619
  C  C132  1  0.01499020  0.93868614  0.28021006  1 0.681453
  C  C133  1  0.01196636  0.62595776  0.82119153  1 -0.137119
  C  C134  1  0.98500980  0.06131384  0.71978993  1 0.681465
  C  C135  1  0.64594606  0.35285745  0.29562122  1 0.087502
  C  C136  1  0.03662377  0.41028276  0.11988815  1 -0.028184
  C  C137  1  0.23191982  0.45937734  0.04435035  1 -0.089174
  C  C138  1  0.35284357  0.14968714  0.79560766  1 0.087193
  C  C139  1  0.59813883  0.34101199  0.36300559  1 -0.08027
  C  C140  1  0.82527083  0.11551206  0.68616998  1 -0.130551
  C  C141  1  0.53907219  0.38907596  0.14460216  1 -0.082965
  C  C142  1  0.58328059  0.70960683  0.11989475  1 -0.02848
  C  C143  1  0.36627550  0.44961250  0.42388243  1 0.594244
  C  C144  1  0.31242356  0.45937434  0.04434743  1 -0.088428
  C  C145  1  0.70960683  0.58328054  0.61989476  1 -0.028488
  C  C146  1  0.45937733  0.23191984  0.54435036  1 -0.089175
  C  C147  1  0.02569807  0.63371629  0.07611378  1 0.593974
  C  C148  1  0.76522843  0.34151274  0.28020116  1 0.680749
  C  C149  1  0.02570709  0.44237335  0.07610233  1 0.592748
  C  C150  1  0.18850773  0.47848974  0.95699541  1 -0.093001
  C  C151  1  0.03661909  0.70959823  0.11989312  1 -0.031941
  C  C152  1  0.45937433  0.31242358  0.54434743  1 -0.088428
  C  C153  1  0.35285743  0.64594608  0.79562123  1 0.087503
  C  C154  1  0.94274539  0.64594757  0.79562572  1 0.086554
  C  C155  1  0.41502118  0.76808258  0.45565483  1 -0.088305
  C  C156  1  0.19524574  0.30920086  0.32118558  1 -0.137867
  C  C157  1  0.98802751  0.80475295  0.17881251  1 -0.138328
  C  C158  1  0.44961218  0.36627554  0.92388249  1 0.594206
  C  C159  1  0.26849219  0.47848977  0.95699509  1 -0.094897
  C  C160  1  0.01197245  0.19524703  0.82118748  1 -0.138333
  C  C161  1  0.68757643  0.54062568  0.95565257  1 -0.0884
  C  C162  1  0.36628371  0.97430211  0.42388624  1 0.593974
  C  C163  1  0.62595364  0.30920898  0.32119460  1 -0.138457
  C  C164  1  0.46092773  0.61092405  0.85539783  1 -0.082974
  C  C165  1  0.57068015  0.82528535  0.18617646  1 -0.130443
  C  C166  1  0.11551204  0.82527084  0.18616997  1 -0.130552
  C  C167  1  0.63372449  0.55038759  0.57611755  1 0.594202
  C  C168  1  0.63912738  0.42932660  0.31383154  1 -0.126858
  C  C169  1  0.46092028  0.24448013  0.85539348  1 -0.081371
  C  C170  1  0.76524096  0.93868794  0.28022091  1 0.677956
  C  C171  1  0.24448014  0.46092031  0.35539350  1 -0.081416
  C  C172  1  0.30920087  0.19524573  0.82118556  1 -0.13786
  C  C173  1  0.38909199  0.10554441  0.64459811  1 -0.083627
  C  C174  1  0.58971724  0.96337621  0.38011186  1 -0.028183
  C  C175  1  0.65899064  0.73513265  0.13699641  1 -0.080764
  C  C176  1  0.10554444  0.38909199  0.14459810  1 -0.083619
  C  C177  1  0.44960421  0.55761608  0.92388871  1 0.5934
  C  C178  1  0.30920899  0.62595365  0.82119461  1 -0.138461
  C  C179  1  0.64594760  0.94274536  0.29562575  1 0.086556
  C  C180  1  0.34101195  0.59813883  0.86300560  1 -0.080271
  C  C181  1  0.98803361  0.37404225  0.17880846  1 -0.137117
  C  C182  1  0.61092405  0.46092777  0.35539783  1 -0.082965
  C  C183  1  0.73513109  0.97802010  0.63699834  1 -0.077988
  C  C184  1  0.61090800  0.89445557  0.35540191  1 -0.08362
  C  C185  1  0.80475427  0.69079914  0.67881443  1 -0.137868
  C  C186  1  0.07156363  0.32154386  0.24998921  1 -0.27291
  C  C187  1  0.44237331  0.02570663  0.57610227  1 0.592749
  C  C188  1  0.40186117  0.65898803  0.63699440  1 -0.080274
  C  C189  1  0.35405241  0.05725462  0.70437426  1 0.086555
  C  C190  1  0.41671933  0.58971735  0.88010860  1 -0.028601
  C  C191  1  0.59814225  0.02197526  0.36300338  1 -0.079797
  C  C192  1  0.93868801  0.76524088  0.78022086  1 0.677951
  C  C193  1  0.76808258  0.41502118  0.95565483  1 -0.088288
  C  C194  1  0.65898800  0.40186117  0.13699441  1 -0.08027
  C  C195  1  0.37404225  0.98803363  0.67880847  1 -0.137118
  C  C196  1  0.11551302  0.36088012  0.18616081  1 -0.12875
  C  C197  1  0.68757633  0.41502031  0.95565596  1 -0.088305
  C  C198  1  0.82528533  0.57068013  0.68617646  1 -0.130442
  C  C199  1  0.97430256  0.36628375  0.92388630  1 0.593952
  C  C200  1  0.41028275  0.03662384  0.61988815  1 -0.028184
  C  C201  1  0.80475296  0.98802755  0.67881252  1 -0.138331
  C  C202  1  0.92843346  0.07156656  0.75000000  1 -0.274685
  C  C203  1  0.42931988  0.17471467  0.81382353  1 -0.130449
  C  C204  1  0.38907595  0.53907224  0.64460217  1 -0.082973
  C  C205  1  0.41028265  0.58328072  0.61989140  1 -0.0286
  C  C206  1  0.85030764  0.05725313  0.70438529  1 0.088363
  C  C207  1  0.63911987  0.88448698  0.31383920  1 -0.12875
  C  C208  1  0.64714252  0.35405393  0.20437876  1 0.087503
  C  C209  1  0.76808018  0.54062268  0.95564965  1 -0.089179
  C  C210  1  0.55762667  0.97429309  0.42389770  1 0.592749
  C  C211  1  0.98500871  0.65849484  0.71980512  1 0.682253
  C  C212  1  0.96337612  0.58971725  0.88011184  1 -0.028182
  C  C213  1  0.54062266  0.76808017  0.45564964  1 -0.089174
  C  C214  1  0.96338081  0.29040177  0.88010687  1 -0.031922
  C  C215  1  0.75550204  0.10554022  0.64460074  1 -0.082174
  C  C216  1  0.55039524  0.44238397  0.07611138  1 0.593434
  C  C217  1  0.55038727  0.63372452  0.07611760  1 0.594254
  C  C218  1  0.94274689  0.14969236  0.79561472  1 0.088363
  C  C219  1  0.93868617  0.01499020  0.78021004  1 0.681451
  C  C220  1  0.97429353  0.55762669  0.92389775  1 0.592709
  C  C221  1  0.23477153  0.65848724  0.71979882  1 0.680752
  C  C222  1  0.58497969  0.31242367  0.54434404  1 -0.088228
  C  C223  1  0.32154386  0.07156365  0.74998920  1 -0.272912
  C  C224  1  0.44238394  0.55039557  0.57611133  1 0.5934
  C  C225  1  0.02197530  0.59814225  0.86300339  1 -0.079794
  C  C226  1  0.26486889  0.02197987  0.36300167  1 -0.078
  C  C227  1  0.29039317  0.41671945  0.38010524  1 -0.028475
  C  C228  1  0.06131207  0.23475904  0.21977910  1 0.677957
  C  C229  1  0.64715639  0.85031288  0.20439233  1 0.087193
  C  C230  1  0.69079103  0.37404637  0.17880538  1 -0.138459
  C  C231  1  0.62595775  0.01196638  0.32119155  1 -0.137118
  C  C232  1  0.10554026  0.75550203  0.14460072  1 -0.082171
  C  C233  1  0.35405392  0.64714256  0.70437877  1 0.087501
  C  C234  1  0.55761605  0.44960454  0.42388866  1 0.593434
  C  C235  1  0.52151023  0.73150781  0.54300491  1 -0.094898
  C  C236  1  0.32155254  0.67844747  0.75000000  1 -0.274439
  C  C237  1  0.57067340  0.36087264  0.18616845  1 -0.126858
  C  C238  1  0.36087262  0.57067340  0.68616846  1 -0.126856
  C  C239  1  0.70959823  0.03661916  0.61989314  1 -0.031939
  C  C240  1  0.52151026  0.81149227  0.54300458  1 -0.093
  C  C241  1  0.47848977  0.26849220  0.45699509  1 -0.094897
  C  C242  1  0.05725315  0.85030764  0.20438527  1 0.088364
  C  C243  1  0.41671951  0.29039316  0.88010523  1 -0.02849
  C  C244  1  0.89445562  0.61090802  0.85540189  1 -0.083627
  C  C245  1  0.47848973  0.18850773  0.45699542  1 -0.093001
  C  C246  1  0.65849500  0.98500872  0.21980513  1 0.682254
  C  C247  1  0.36088012  0.11551304  0.68616081  1 -0.128748
  C  C248  1  0.58328076  0.41028267  0.11989140  1 -0.028619
  C  C249  1  0.88448697  0.63911987  0.81383918  1 -0.128747
  C  C250  1  0.88448794  0.17472917  0.81383003  1 -0.130549
  C  C251  1  0.67845615  0.92843636  0.25001081  1 -0.272911
  C  C252  1  0.54062567  0.68757643  0.45565257  1 -0.088428
  C  C253  1  0.17471467  0.42931986  0.31382354  1 -0.130443
  C  C254  1  0.01499127  0.34150504  0.28019490  1 0.682259
  C  C255  1  0.41502030  0.68757635  0.45565596  1 -0.088228
  C  C256  1  0.89445980  0.24449796  0.85539927  1 -0.082181
  C  C257  1  0.73150780  0.52151024  0.04300491  1 -0.094905
  C  C258  1  0.37404635  0.69079103  0.67880539  1 -0.138458
  C  C259  1  0.42932662  0.63912738  0.81383155  1 -0.126856
  C  C260  1  0.53907965  0.75551987  0.14460650  1 -0.081412
  C  C261  1  0.34100931  0.26486739  0.86300360  1 -0.08077
  C  C262  1  0.24449797  0.89445976  0.35539928  1 -0.082172
  C  C263  1  0.07156655  0.92843346  0.25000000  1 -0.27468
  C  C264  1  0.02197992  0.26486892  0.86300167  1 -0.077988
  C  C265  1  0.34150497  0.01499131  0.78019489  1 0.682252
  C  C266  1  0.14968713  0.35284360  0.29560767  1 0.087194
  C  C267  1  0.97802477  0.40185774  0.13699663  1 -0.079797
  C  C268  1  0.29040177  0.96338090  0.38010688  1 -0.031941
  C  C269  1  0.92843635  0.67845608  0.75001076  1 -0.272914
  C  C270  1  0.67844744  0.32155254  0.24999998  1 -0.27444
  C  C271  1  0.81149227  0.52151028  0.04300459  1 -0.092999
  C  C272  1  0.73513263  0.65899067  0.63699641  1 -0.080735
  C  C273  1  0.14969236  0.94274686  0.29561472  1 0.088363
  C  C274  1  0.63371626  0.02569760  0.57611372  1 0.593965
  C  C275  1  0.40185776  0.97802471  0.63699662  1 -0.079795
  C  C276  1  0.17472916  0.88448795  0.31383003  1 -0.130551
  C  C277  1  0.31242365  0.58497969  0.04434404  1 -0.088227
  C  C278  1  0.85031287  0.64715640  0.70439231  1 0.087193
  C  C279  1  0.69079915  0.80475426  0.17881442  1 -0.137859
  N  N280  1  0.50759354  0.19075209  0.51518349  1 -0.103979
  N  N281  1  0.80924793  0.49240647  0.98481652  1 -0.103981
  N  N282  1  0.49240646  0.80924792  0.48481652  1 -0.103981
  N  N283  1  0.32442953  0.50759451  0.01518309  1 -0.103457
  N  N284  1  0.19075208  0.50759354  0.01518349  1 -0.103981
  N  N285  1  0.50759451  0.32442954  0.51518310  1 -0.103456
  N  N286  1  0.49240549  0.67557046  0.48481690  1 -0.103457
  N  N287  1  0.67557045  0.49240550  0.98481690  1 -0.103431
  O  O288  1  0.40019527  0.04097299  0.44960100  1 -0.559917
  O  O289  1  0.59131017  0.45057323  0.05036892  1 -0.559772
  O  O290  1  0.40021703  0.40868795  0.44961281  1 -0.560826
  O  O291  1  0.08381771  0.45937081  0.06834869  1 -0.54965
  O  O292  1  0.91619819  0.39105686  0.93163424  1 -0.550216
  O  O293  1  0.60894318  0.08380174  0.56836578  1 -0.550195
  O  O294  1  0.54058521  0.51545367  0.43160888  1 -0.55055
  O  O295  1  0.51547050  0.39101697  0.93161286  1 -0.550693
  O  O296  1  0.95902694  0.59980470  0.05039897  1 -0.559914
  O  O297  1  0.54941397  0.04095573  0.44960845  1 -0.560032
  O  O298  1  0.45058601  0.95904444  0.55039162  1 -0.560033
  O  O299  1  0.59980483  0.95902718  0.55039907  1 -0.559916
  O  O300  1  0.51545386  0.54058517  0.93160890  1 -0.550564
  O  O301  1  0.04095547  0.54941399  0.94960834  1 -0.559967
  O  O302  1  0.45941480  0.48454629  0.56839112  1 -0.550566
  O  O303  1  0.59131214  0.59978289  0.05038713  1 -0.560877
  O  O304  1  0.04097274  0.40019514  0.94960091  1 -0.559891
  O  O305  1  0.60898309  0.48452964  0.56838716  1 -0.550699
  O  O306  1  0.39101689  0.51547030  0.43161283  1 -0.550722
  O  O307  1  0.59978299  0.59131202  0.55038722  1 -0.560786
  O  O308  1  0.54062917  0.91618223  0.43165133  1 -0.549651
  O  O309  1  0.48454646  0.45941475  0.06839114  1 -0.550553
  O  O310  1  0.40868797  0.40021710  0.94961280  1 -0.560799
  O  O311  1  0.48452983  0.60898316  0.06838718  1 -0.550676
  O  O312  1  0.95904420  0.45058605  0.05039153  1 -0.560029
  O  O313  1  0.40869003  0.54942681  0.94963095  1 -0.559731
  O  O314  1  0.39105696  0.91619835  0.43163423  1 -0.550203
  O  O315  1  0.08380159  0.60894307  0.06836578  1 -0.550204
  O  O316  1  0.45937087  0.08381793  0.56834867  1 -0.54965
  O  O317  1  0.91618199  0.54062910  0.93165135  1 -0.549662
  O  O318  1  0.54942680  0.40868992  0.44963104  1 -0.559775
  O  O319  1  0.45057320  0.59131005  0.55036899  1 -0.559729
  F  F320  1  0.69432622  0.05559411  0.25267375  1 -0.205794
  F  F321  1  0.32361164  0.03586003  0.82619860  1 -0.204308
  F  F322  1  0.03585999  0.32361168  0.32619863  1 -0.204308
  F  F323  1  0.01089947  0.88100938  0.29740998  1 -0.207026
  F  F324  1  0.98910053  0.11899061  0.70259001  1 -0.207023
  F  F325  1  0.94164913  0.94441493  0.74733246  1 -0.205588
  F  F326  1  0.99742701  0.96415479  0.17378289  1 -0.204685
  F  F327  1  0.32362392  0.79036730  0.82620516  1 -0.2043
  F  F328  1  0.99741286  0.20959441  0.17378065  1 -0.20408
  F  F329  1  0.96415478  0.99742699  0.67378290  1 -0.204683
  F  F330  1  0.30567384  0.94440594  0.74732628  1 -0.20579
  F  F331  1  0.94440586  0.30567383  0.24732630  1 -0.205794
  F  F332  1  0.05838689  0.19704250  0.25265520  1 -0.204514
  F  F333  1  0.05559405  0.69432613  0.75267369  1 -0.205789
  F  F334  1  0.11899061  0.98910054  0.20259001  1 -0.207026
  F  F335  1  0.80295749  0.94161313  0.24734480  1 -0.204514
  F  F336  1  0.20959446  0.99741285  0.67378066  1 -0.20408
  F  F337  1  0.67638837  0.96414001  0.17380142  1 -0.204305
  F  F338  1  0.00257300  0.03584521  0.82621708  1 -0.204689
  F  F339  1  0.94161313  0.80295740  0.74734475  1 -0.204512
  F  F340  1  0.78647903  0.88101472  0.29743376  1 -0.206258
  F  F341  1  0.00258714  0.79040551  0.82621931  1 -0.204078
  F  F342  1  0.58361842  0.98907430  0.20260201  1 -0.20791
  F  F343  1  0.98907440  0.58361826  0.70260221  1 -0.207921
  F  F344  1  0.69431569  0.19705375  0.25266483  1 -0.20487
  F  F345  1  0.05558509  0.05835084  0.75266750  1 -0.205597
  F  F346  1  0.94441491  0.94164912  0.24733247  1 -0.205588
  F  F347  1  0.30568432  0.80294627  0.74733517  1 -0.204871
  F  F348  1  0.19705375  0.69431567  0.75266486  1 -0.204871
  F  F349  1  0.80294620  0.30568429  0.24733513  1 -0.204871
  F  F350  1  0.78650199  0.41638845  0.29740004  1 -0.207598
  F  F351  1  0.19704254  0.05838692  0.75265521  1 -0.20451
  F  F352  1  0.05835083  0.05558510  0.25266751  1 -0.205589
  F  F353  1  0.96414001  0.67638798  0.67380131  1 -0.204299
  F  F354  1  0.79036725  0.32362387  0.32620511  1 -0.204297
  F  F355  1  0.21349800  0.58361154  0.70259995  1 -0.207599
  F  F356  1  0.11898530  0.21352098  0.20256624  1 -0.206259
  F  F357  1  0.41638845  0.78650201  0.79740004  1 -0.207599
  F  F358  1  0.03584520  0.00257298  0.32621711  1 -0.204684
  F  F359  1  0.67637612  0.20963270  0.17379486  1 -0.2043
  F  F360  1  0.20963269  0.67637608  0.67379485  1 -0.204299
  F  F361  1  0.41638159  0.01092578  0.79739804  1 -0.207909
  F  F362  1  0.88101476  0.78647895  0.79743372  1 -0.206251
  F  F363  1  0.58361155  0.21349799  0.20259994  1 -0.207598
  F  F364  1  0.88100940  0.01089949  0.79740998  1 -0.207023
  F  F365  1  0.21352100  0.11898525  0.70256622  1 -0.206256
  F  F366  1  0.01092570  0.41638163  0.29739803  1 -0.207914
  F  F367  1  0.79040556  0.00258715  0.32621934  1 -0.20408
