# generated using pymatgen
data_Zn4H96C150O19
_symmetry_space_group_name_H-M   'P 1'
_cell_length_a   19.04970396
_cell_length_b   23.14438991
_cell_length_c   23.47575822
_cell_angle_alpha   87.89461315
_cell_angle_beta   68.15179574
_cell_angle_gamma   68.50283004
_symmetry_Int_Tables_number   1
_chemical_formula_structural   Zn4H96C150O19
_chemical_formula_sum   'Zn8 H192 C300 O38'
_cell_volume   8878.89613461
_cell_formula_units_Z   2
loop_
 _symmetry_equiv_pos_site_id
 _symmetry_equiv_pos_as_xyz
  1  'x, y, z'
loop_
 _atom_site_type_symbol
 _atom_site_label
 _atom_site_symmetry_multiplicity
 _atom_site_fract_x
 _atom_site_fract_y
 _atom_site_fract_z
 _atom_site_occupancy
  Zn  Zn0  1  0.54194863  0.27732413  0.23374096  1
  Zn  Zn1  1  0.46668213  0.22076248  0.35550694  1
  Zn  Zn2  1  0.34570641  0.32277196  0.30956482  1
  Zn  Zn3  1  0.45831895  0.37748940  0.33493920  1
  Zn  Zn4  1  0.45805137  0.72267587  0.76625904  1
  Zn  Zn5  1  0.53331787  0.77923752  0.64449306  1
  Zn  Zn6  1  0.65429359  0.67722804  0.69043518  1
  Zn  Zn7  1  0.54168105  0.62251060  0.66506080  1
  H  H8  1  0.59990857  0.25303783  0.74831984  1
  H  H9  1  0.48569602  0.23926363  0.96540914  1
  H  H10  1  0.63219718  0.19169624  0.96996747  1
  H  H11  1  0.78259284  0.15256404  0.91224194  1
  H  H12  1  0.84087282  0.15565502  0.79860049  1
  H  H13  1  0.74839791  0.20044847  0.74256631  1
  H  H14  1  0.41367800  0.36032496  0.99068591  1
  H  H15  1  0.38178872  0.46453079  0.95048092  1
  H  H16  1  0.43740470  0.47152751  0.83791612  1
  H  H17  1  0.52754934  0.37458911  0.76388344  1
  H  H18  1  0.44767166  0.12759671  0.70508043  1
  H  H19  1  0.33044862  0.10974391  0.92090721  1
  H  H20  1  0.39652482  0.98736458  0.90219774  1
  H  H21  1  0.48690630  0.89229876  0.82658658  1
  H  H22  1  0.54959125  0.90135821  0.71506091  1
  H  H23  1  0.52107794  0.00685540  0.67741898  1
  H  H24  1  0.18322590  0.17482636  0.92786412  1
  H  H25  1  0.09320127  0.23227170  0.87324888  1
  H  H26  1  0.15309895  0.23830206  0.76016987  1
  H  H27  1  0.30382741  0.18968063  0.70179886  1
  H  H28  1  0.48443616  0.29553270  0.70356215  1
  H  H29  1  0.40526845  0.26850181  0.74389723  1
  H  H30  1  0.34597554  0.33585787  0.66990543  1
  H  H31  1  0.33255209  0.33033383  0.56800076  1
  H  H32  1  0.53820246  0.15571765  0.50895816  1
  H  H33  1  0.55303342  0.16098514  0.61023793  1
  H  H34  1  0.48041017  0.08658916  0.95581128  1
  H  H35  1  0.37651390  0.09696909  0.00141193  1
  H  H36  1  0.30263468  0.16379413  0.10367077  1
  H  H37  1  0.30616423  0.22809763  0.18539994  1
  H  H38  1  0.56097548  0.18717822  0.07977340  1
  H  H39  1  0.55732869  0.12483159  0.99708910  1
  H  H40  1  0.05780820  0.72426888  0.29783358  1
  H  H41  1  0.90990273  0.93361812  0.26991601  1
  H  H42  1  0.76911946  0.92728643  0.33812781  1
  H  H43  1  0.69483846  0.86370640  0.40295128  1
  H  H44  1  0.77157623  0.75576454  0.41776549  1
  H  H45  1  0.92419103  0.70962361  0.36788515  1
  H  H46  1  0.98430665  0.97954846  0.31747072  1
  H  H47  1  0.08760904  0.95929635  0.36470308  1
  H  H48  1  0.16301483  0.85146148  0.38014975  1
  H  H49  1  0.13601950  0.76209758  0.34981262  1
  H  H50  1  0.17568291  0.66186981  0.06023473  1
  H  H51  1  0.04461850  0.87440900  0.03117479  1
  H  H52  1  0.95585586  0.84525821  0.98364486  1
  H  H53  1  0.91538238  0.76163967  0.95688623  1
  H  H54  1  0.97976298  0.65267260  0.97587681  1
  H  H55  1  0.08727785  0.62454659  0.01918220  1
  H  H56  1  0.18047100  0.87976210  0.95575574  1
  H  H57  1  0.33098476  0.82486595  0.90064337  1
  H  H58  1  0.40109740  0.71651830  0.91879825  1
  H  H59  1  0.32043090  0.65985221  0.98946118  1
  H  H60  1  0.20944801  0.70994455  0.20337879  1
  H  H61  1  0.25690577  0.66369417  0.13107698  1
  H  H62  1  0.13497787  0.59056613  0.23468765  1
  H  H63  1  0.18544969  0.49906947  0.28856299  1
  H  H64  1  0.40622897  0.53185892  0.24882322  1
  H  H65  1  0.35932553  0.61982220  0.19058312  1
  H  H66  1  0.88160505  0.88737290  0.14052825  1
  H  H67  1  0.91935301  0.93015616  0.07987536  1
  H  H68  1  0.74970790  0.94052537  0.21701084  1
  H  H69  1  0.63318624  0.04087008  0.27156328  1
  H  H70  1  0.77765626  0.14495712  0.17280201  1
  H  H71  1  0.89509597  0.04483506  0.11843814  1
  H  H72  1  0.20111646  0.97792157  0.48188557  1
  H  H73  1  0.96661301  0.13939811  0.42850226  1
  H  H74  1  0.95143337  0.13327571  0.32314026  1
  H  H75  1  0.88577977  0.10019103  0.26282458  1
  H  H76  1  0.79621161  0.04195046  0.30977835  1
  H  H77  1  0.22675276  0.98652382  0.58282709  1
  H  H78  1  0.85808201  0.24056611  0.50247447  1
  H  H79  1  0.72435831  0.28964681  0.59158021  1
  H  H80  1  0.64086631  0.22634256  0.64093755  1
  H  H81  1  0.31128787  0.88459603  0.39915380  1
  H  H82  1  0.01667758  0.14517535  0.52924761  1
  H  H83  1  0.09724244  0.08482717  0.54292977  1
  H  H84  1  0.24520569  0.06696294  0.46775966  1
  H  H85  1  0.34009977  0.11933671  0.40878143  1
  H  H86  1  0.13415349  0.28901785  0.43035113  1
  H  H87  1  0.03871799  0.23649944  0.48891686  1
  H  H88  1  0.94592119  0.43628998  0.14171027  1
  H  H89  1  0.84110593  0.48860018  0.96309917  1
  H  H90  1  0.88408359  0.51856839  0.23798454  1
  H  H91  1  0.88946437  0.61047258  0.28664085  1
  H  H92  1  0.99926153  0.64984916  0.23139632  1
  H  H93  1  0.89526670  0.40187693  0.87133467  1
  H  H94  1  0.05099936  0.32394452  0.13583494  1
  H  H95  1  0.19734027  0.25074251  0.09597064  1
  H  H96  1  0.30729417  0.28844258  0.03844378  1
  H  H97  1  0.72756188  0.59846590  0.97760151  1
  H  H98  1  0.77185640  0.54228637  0.07710978  1
  H  H99  1  0.81483365  0.53408096  0.13415606  1
  H  H100  1  0.75714322  0.42686833  0.06027667  1
  H  H101  1  0.66717912  0.37164345  0.12021079  1
  H  H102  1  0.63467323  0.46219139  0.28997631  1
  H  H103  1  0.72422627  0.51826837  0.22994335  1
  H  H104  1  0.40009143  0.74696217  0.25168016  1
  H  H105  1  0.51430398  0.76073637  0.03459086  1
  H  H106  1  0.36780282  0.80830376  0.03003253  1
  H  H107  1  0.21740716  0.84743596  0.08775806  1
  H  H108  1  0.15912718  0.84434498  0.20139951  1
  H  H109  1  0.25160209  0.79955153  0.25743369  1
  H  H110  1  0.58632200  0.63967504  0.00931409  1
  H  H111  1  0.61821128  0.53546921  0.04951908  1
  H  H112  1  0.56259530  0.52847249  0.16208388  1
  H  H113  1  0.47245066  0.62541089  0.23611656  1
  H  H114  1  0.55232834  0.87240329  0.29491957  1
  H  H115  1  0.66955138  0.89025609  0.07909279  1
  H  H116  1  0.60347518  0.01263542  0.09780226  1
  H  H117  1  0.51309370  0.10770124  0.17341342  1
  H  H118  1  0.45040875  0.09864179  0.28493909  1
  H  H119  1  0.47892206  0.99314460  0.32258102  1
  H  H120  1  0.81677410  0.82517364  0.07213588  1
  H  H121  1  0.90679873  0.76772830  0.12675112  1
  H  H122  1  0.84690105  0.76169794  0.23983013  1
  H  H123  1  0.69617259  0.81031937  0.29820114  1
  H  H124  1  0.51556384  0.70446730  0.29643785  1
  H  H125  1  0.59473155  0.73149819  0.25610277  1
  H  H126  1  0.65402446  0.66414213  0.33009457  1
  H  H127  1  0.66744791  0.66966617  0.43199924  1
  H  H128  1  0.46179754  0.84428235  0.49104184  1
  H  H129  1  0.44696658  0.83901486  0.38976207  1
  H  H130  1  0.51958983  0.91341084  0.04418872  1
  H  H131  1  0.62348610  0.90303091  0.99858807  1
  H  H132  1  0.69736532  0.83620587  0.89632923  1
  H  H133  1  0.69383577  0.77190237  0.81460006  1
  H  H134  1  0.43902452  0.81282178  0.92022660  1
  H  H135  1  0.44267131  0.87516841  0.00291090  1
  H  H136  1  0.94219180  0.27573112  0.70216642  1
  H  H137  1  0.09009727  0.06638188  0.73008399  1
  H  H138  1  0.23088054  0.07271357  0.66187219  1
  H  H139  1  0.30516154  0.13629360  0.59704872  1
  H  H140  1  0.22842377  0.24423546  0.58223451  1
  H  H141  1  0.07580897  0.29037639  0.63211485  1
  H  H142  1  0.01569335  0.02045154  0.68252928  1
  H  H143  1  0.91239096  0.04070365  0.63529692  1
  H  H144  1  0.83698517  0.14853852  0.61985025  1
  H  H145  1  0.86398050  0.23790242  0.65018738  1
  H  H146  1  0.82431709  0.33813019  0.93976527  1
  H  H147  1  0.95538150  0.12559100  0.96882521  1
  H  H148  1  0.04414414  0.15474179  0.01635514  1
  H  H149  1  0.08461762  0.23836033  0.04311377  1
  H  H150  1  0.02023702  0.34732740  0.02412319  1
  H  H151  1  0.91272215  0.37545341  0.98081780  1
  H  H152  1  0.81952900  0.12023790  0.04424426  1
  H  H153  1  0.66901524  0.17513405  0.09935663  1
  H  H154  1  0.59890260  0.28348170  0.08120175  1
  H  H155  1  0.67956910  0.34014779  0.01053882  1
  H  H156  1  0.79055199  0.29005545  0.79662121  1
  H  H157  1  0.74309423  0.33630583  0.86892302  1
  H  H158  1  0.86502213  0.40943387  0.76531235  1
  H  H159  1  0.81455031  0.50093053  0.71143701  1
  H  H160  1  0.59377103  0.46814108  0.75117678  1
  H  H161  1  0.64067447  0.38017780  0.80941688  1
  H  H162  1  0.11839495  0.11262710  0.85947175  1
  H  H163  1  0.08064699  0.06984384  0.92012464  1
  H  H164  1  0.25029210  0.05947463  0.78298916  1
  H  H165  1  0.36681376  0.95912992  0.72843672  1
  H  H166  1  0.22234374  0.85504288  0.82719799  1
  H  H167  1  0.10490403  0.95516494  0.88156186  1
  H  H168  1  0.79888354  0.02207843  0.51811443  1
  H  H169  1  0.03338699  0.86060189  0.57149774  1
  H  H170  1  0.04856663  0.86672429  0.67685974  1
  H  H171  1  0.11422023  0.89980897  0.73717542  1
  H  H172  1  0.20378839  0.95804954  0.69022165  1
  H  H173  1  0.77324724  0.01347618  0.41717291  1
  H  H174  1  0.14191799  0.75943389  0.49752553  1
  H  H175  1  0.27564169  0.71035319  0.40841979  1
  H  H176  1  0.35913369  0.77365744  0.35906245  1
  H  H177  1  0.68871213  0.11540397  0.60084620  1
  H  H178  1  0.98332242  0.85482465  0.47075239  1
  H  H179  1  0.90275756  0.91517283  0.45707023  1
  H  H180  1  0.75479431  0.93303706  0.53224034  1
  H  H181  1  0.65990023  0.88066329  0.59121857  1
  H  H182  1  0.86584651  0.71098215  0.56964887  1
  H  H183  1  0.96128201  0.76350056  0.51108314  1
  H  H184  1  0.05407881  0.56371002  0.85828973  1
  H  H185  1  0.15889407  0.51139982  0.03690083  1
  H  H186  1  0.11591641  0.48143161  0.76201546  1
  H  H187  1  0.11053563  0.38952742  0.71335915  1
  H  H188  1  0.00073847  0.35015084  0.76860368  1
  H  H189  1  0.10473330  0.59812307  0.12866533  1
  H  H190  1  0.94900064  0.67605548  0.86416506  1
  H  H191  1  0.80265973  0.74925749  0.90402936  1
  H  H192  1  0.69270583  0.71155742  0.96155622  1
  H  H193  1  0.27243812  0.40153410  0.02239849  1
  H  H194  1  0.22814360  0.45771363  0.92289022  1
  H  H195  1  0.18516635  0.46591904  0.86584394  1
  H  H196  1  0.24285678  0.57313167  0.93972333  1
  H  H197  1  0.33282088  0.62835655  0.87978921  1
  H  H198  1  0.36532677  0.53780861  0.71002369  1
  H  H199  1  0.27577373  0.48173163  0.77005665  1
  C  C200  1  0.49921380  0.18764127  0.77259480  1
  C  C201  1  0.51982237  0.21249436  0.81437625  1
  C  C202  1  0.48682325  0.20721655  0.87770038  1
  C  C203  1  0.43324682  0.17557439  0.89915678  1
  C  C204  1  0.57374552  0.25032359  0.79803830  1
  C  C205  1  0.51200266  0.24232314  0.91578907  1
  C  C206  1  0.63866285  0.22006157  0.82469709  1
  C  C207  1  0.60553288  0.21636808  0.88850034  1
  C  C208  1  0.65713099  0.19256971  0.92012633  1
  C  C209  1  0.74208951  0.17085176  0.88749526  1
  C  C210  1  0.77480397  0.17304533  0.82385732  1
  C  C211  1  0.72280976  0.19826054  0.79218052  1
  C  C212  1  0.51963740  0.31380851  0.83600794  1
  C  C213  1  0.48668855  0.30952653  0.89977955  1
  C  C214  1  0.43790687  0.36350544  0.94111023  1
  C  C215  1  0.42030644  0.42191234  0.91841469  1
  C  C216  1  0.45180789  0.42598839  0.85505968  1
  C  C217  1  0.50206118  0.37160743  0.81346655  1
  C  C218  1  0.44921361  0.15359693  0.79351022  1
  C  C219  1  0.41610633  0.14791127  0.85662504  1
  C  C220  1  0.42077133  0.12327083  0.75436342  1
  C  C221  1  0.35768031  0.11352402  0.87152800  1
  C  C222  1  0.44273180  0.05566930  0.76872516  1
  C  C223  1  0.40805827  0.05035882  0.83207441  1
  C  C224  1  0.42341826  0.99176286  0.85305357  1
  C  C225  1  0.47450154  0.93827886  0.81043125  1
  C  C226  1  0.50990060  0.94342341  0.74763830  1
  C  C227  1  0.49361202  0.00250003  0.72649671  1
  C  C228  1  0.32765268  0.15425148  0.78194548  1
  C  C229  1  0.29366695  0.14952513  0.84548555  1
  C  C230  1  0.20971736  0.17745393  0.87837629  1
  C  C231  1  0.15906615  0.20990321  0.84746806  1
  C  C232  1  0.19270773  0.21368719  0.78417193  1
  C  C233  1  0.27757978  0.18603512  0.75110553  1
  C  C234  1  0.46379201  0.25659444  0.70396160  1
  C  C235  1  0.45213524  0.24941807  0.64528091  1
  C  C236  1  0.38850009  0.29650541  0.63435217  1
  C  C237  1  0.38030662  0.29365394  0.57824825  1
  C  C238  1  0.43554020  0.24338238  0.53262666  1
  C  C239  1  0.49647369  0.19475796  0.54473297  1
  C  C240  1  0.50469545  0.19781852  0.60088456  1
  C  C241  1  0.43293964  0.24434723  0.47004656  1
  C  C242  1  0.42163922  0.11910999  0.98922063  1
  C  C243  1  0.42924779  0.14164229  0.04473964  1
  C  C244  1  0.35932512  0.16892118  0.09863798  1
  C  C245  1  0.36077367  0.20472040  0.14420533  1
  C  C246  1  0.43324253  0.21236141  0.13655557  1
  C  C247  1  0.50470824  0.18183039  0.08444486  1
  C  C248  1  0.50263179  0.14664209  0.03887897  1
  C  C249  1  0.43529290  0.25193112  0.18392897  1
  C  C250  1  0.09157245  0.73727813  0.17268229  1
  C  C251  1  0.03994605  0.78198174  0.22397981  1
  C  C252  1  0.99689839  0.84335095  0.21592599  1
  C  C253  1  0.00699209  0.86091284  0.15664071  1
  C  C254  1  0.02390322  0.77222224  0.29170710  1
  C  C255  1  0.94333652  0.88587825  0.27660384  1
  C  C256  1  0.93147431  0.79235488  0.32464506  1
  C  C257  1  0.88797658  0.85380746  0.31652774  1
  C  C258  1  0.80303399  0.87973442  0.34462085  1
  C  C259  1  0.76142779  0.84396195  0.38096185  1
  C  C260  1  0.80456301  0.78302079  0.38910975  1
  C  C261  1  0.89020473  0.75695784  0.36092333  1
  C  C262  1  0.04544807  0.82097012  0.31610126  1
  C  C263  1  0.00238840  0.88234165  0.30748779  1
  C  C264  1  0.01721364  0.93218980  0.32468627  1
  C  C265  1  0.07545715  0.92059553  0.35097061  1
  C  C266  1  0.11758461  0.85991830  0.36009773  1
  C  C267  1  0.10256744  0.80961064  0.34282551  1
  C  C268  1  0.09885644  0.75415974  0.11367494  1
  C  C269  1  0.05850013  0.81598687  0.10549025  1
  C  C270  1  0.14577481  0.71050494  0.05345134  1
  C  C271  1  0.07393476  0.82567564  0.03779639  1
  C  C272  1  0.08209403  0.71889230  0.02562841  1
  C  C273  1  0.04416118  0.78115719  0.01619094  1
  C  C274  1  0.98492484  0.79690233  0.99107647  1
  C  C275  1  0.96225257  0.75004637  0.97618354  1
  C  C276  1  0.99852147  0.68859854  0.98678631  1
  C  C277  1  0.05897429  0.67272099  0.01142738  1
  C  C278  1  0.20524580  0.73787995  0.01101271  1
  C  C279  1  0.16615411  0.80013461  0.00237094  1
  C  C280  1  0.21093894  0.83172538  0.96317128  1
  C  C281  1  0.29577084  0.80094552  0.93270297  1
  C  C282  1  0.33498331  0.73964604  0.94242914  1
  C  C283  1  0.28964817  0.70781037  0.98187910  1
  C  C284  1  0.21348241  0.66807405  0.17925775  1
  C  C285  1  0.24308049  0.61174050  0.21029322  1
  C  C286  1  0.19439171  0.57747962  0.23767712  1
  C  C287  1  0.22225867  0.52665826  0.26801292  1
  C  C288  1  0.29780750  0.51093538  0.27317552  1
  C  C289  1  0.34682069  0.54513743  0.24559641  1
  C  C290  1  0.32014528  0.59440759  0.21335014  1
  C  C291  1  0.32750585  0.45612809  0.30465045  1
  C  C292  1  0.89871636  0.92811744  0.13020482  1
  C  C293  1  0.82870548  0.98699773  0.16396540  1
  C  C294  1  0.75595260  0.98536091  0.20788853  1
  C  C295  1  0.69121413  0.04092798  0.23856538  1
  C  C296  1  0.69942498  0.09814892  0.22517125  1
  C  C297  1  0.77310982  0.09980266  0.18241215  1
  C  C298  1  0.83743628  0.04432242  0.15205447  1
  C  C299  1  0.62825348  0.15763905  0.25278111  1
  C  C300  1  0.04749744  0.03616254  0.47669103  1
  C  C301  1  0.07791128  0.98067358  0.50101098  1
  C  C302  1  0.96983884  0.05490332  0.47481143  1
  C  C303  1  0.16287219  0.95112921  0.50281172  1
  C  C304  1  0.92769931  0.11299086  0.44899714  1
  C  C305  1  0.15079956  0.94224685  0.57006725  1
  C  C306  1  0.89913963  0.09172298  0.40364645  1
  C  C307  1  0.91295180  0.10674030  0.34353411  1
  C  C308  1  0.87586193  0.08829835  0.30981094  1
  C  C309  1  0.82556535  0.05521907  0.33621208  1
  C  C310  1  0.18753185  0.96057607  0.60348670  1
  C  C311  1  0.19997020  0.88452618  0.47052407  1
  C  C312  1  0.84816038  0.15064852  0.50251874  1
  C  C313  1  0.82116482  0.21319497  0.52415639  1
  C  C314  1  0.74591198  0.24069868  0.57405453  1
  C  C315  1  0.69892482  0.20553687  0.60168464  1
  C  C316  1  0.27419496  0.85736956  0.42080721  1
  C  C317  1  0.08142639  0.11364198  0.50770013  1
  C  C318  1  0.13630753  0.14834711  0.48086791  1
  C  C319  1  0.22107082  0.11569435  0.45959466  1
  C  C320  1  0.27398158  0.14434604  0.42680474  1
  C  C321  1  0.24210432  0.20664532  0.41556095  1
  C  C322  1  0.15743434  0.24044441  0.43909341  1
  C  C323  1  0.10486152  0.21111371  0.47151171  1
  C  C324  1  0.29861074  0.23569721  0.37712829  1
  C  C325  1  0.93583040  0.48009239  0.03188601  1
  C  C326  1  0.99223959  0.47809776  0.05728202  1
  C  C327  1  0.99448118  0.45373204  0.11822765  1
  C  C328  1  0.94438930  0.50130741  0.97417912  1
  C  C329  1  0.88972320  0.50586018  0.93906498  1
  C  C330  1  0.94714975  0.46992732  0.87533312  1
  C  C331  1  0.99047698  0.50797854  0.15569471  1
  C  C332  1  0.93200380  0.53626394  0.21390457  1
  C  C333  1  0.93536131  0.58758802  0.24120052  1
  C  C334  1  0.99705541  0.60968361  0.21030678  1
  C  C335  1  0.94349973  0.41934111  0.84806967  1
  C  C336  1  0.85730587  0.57478470  0.93003276  1
  C  C337  1  0.08009938  0.40344741  0.10117320  1
  C  C338  1  0.09943633  0.34098338  0.11145920  1
  C  C339  1  0.18172040  0.29998429  0.08894752  1
  C  C340  1  0.24383429  0.32133265  0.05693983  1
  C  C341  1  0.77572931  0.61544106  0.95227358  1
  C  C342  1  0.80011693  0.50848157  0.10440143  1
  C  C343  1  0.74488860  0.47681950  0.14148474  1
  C  C344  1  0.72927810  0.43514119  0.11060232  1
  C  C345  1  0.67979254  0.40404205  0.14368831  1
  C  C346  1  0.64525086  0.41432340  0.20854220  1
  C  C347  1  0.66134913  0.45538423  0.23967181  1
  C  C348  1  0.71118447  0.48636995  0.20602502  1
  C  C349  1  0.58975141  0.38293731  0.24326071  1
  C  C350  1  0.50078620  0.81235873  0.22740520  1
  C  C351  1  0.48017763  0.78750564  0.18562375  1
  C  C352  1  0.51317675  0.79278345  0.12229962  1
  C  C353  1  0.56675318  0.82442561  0.10084322  1
  C  C354  1  0.42625448  0.74967641  0.20196170  1
  C  C355  1  0.48799734  0.75767686  0.08421093  1
  C  C356  1  0.36133715  0.77993843  0.17530291  1
  C  C357  1  0.39446712  0.78363192  0.11149966  1
  C  C358  1  0.34286901  0.80743029  0.07987367  1
  C  C359  1  0.25791049  0.82914824  0.11250474  1
  C  C360  1  0.22519603  0.82695467  0.17614268  1
  C  C361  1  0.27719024  0.80173946  0.20781948  1
  C  C362  1  0.48036260  0.68619149  0.16399206  1
  C  C363  1  0.51331145  0.69047347  0.10022045  1
  C  C364  1  0.56209313  0.63649456  0.05888977  1
  C  C365  1  0.57969356  0.57808766  0.08158531  1
  C  C366  1  0.54819211  0.57401161  0.14494032  1
  C  C367  1  0.49793882  0.62839257  0.18653345  1
  C  C368  1  0.55078639  0.84640307  0.20648978  1
  C  C369  1  0.58389367  0.85208873  0.14337496  1
  C  C370  1  0.57922867  0.87672917  0.24563658  1
  C  C371  1  0.64231969  0.88647598  0.12847200  1
  C  C372  1  0.55726820  0.94433070  0.23127484  1
  C  C373  1  0.59194173  0.94964118  0.16792559  1
  C  C374  1  0.57658174  0.00823714  0.14694643  1
  C  C375  1  0.52549846  0.06172114  0.18956875  1
  C  C376  1  0.49009940  0.05657659  0.25236170  1
  C  C377  1  0.50638798  0.99749997  0.27350329  1
  C  C378  1  0.67234732  0.84574852  0.21805452  1
  C  C379  1  0.70633305  0.85047487  0.15451445  1
  C  C380  1  0.79028264  0.82254607  0.12162371  1
  C  C381  1  0.84093385  0.79009679  0.15253194  1
  C  C382  1  0.80729227  0.78631281  0.21582807  1
  C  C383  1  0.72242022  0.81396488  0.24889447  1
  C  C384  1  0.53620799  0.74340556  0.29603840  1
  C  C385  1  0.54786476  0.75058193  0.35471909  1
  C  C386  1  0.61149991  0.70349459  0.36564783  1
  C  C387  1  0.61969338  0.70634606  0.42175175  1
  C  C388  1  0.56445980  0.75661762  0.46737334  1
  C  C389  1  0.50352631  0.80524204  0.45526703  1
  C  C390  1  0.49530455  0.80218148  0.39911544  1
  C  C391  1  0.56706036  0.75565277  0.52995344  1
  C  C392  1  0.57836078  0.88089001  0.01077937  1
  C  C393  1  0.57075221  0.85835771  0.95526036  1
  C  C394  1  0.64067488  0.83107882  0.90136202  1
  C  C395  1  0.63922633  0.79527960  0.85579467  1
  C  C396  1  0.56675747  0.78763859  0.86344443  1
  C  C397  1  0.49529176  0.81816961  0.91555514  1
  C  C398  1  0.49736821  0.85335791  0.96112103  1
  C  C399  1  0.56470710  0.74806888  0.81607103  1
  C  C400  1  0.90842755  0.26272187  0.82731771  1
  C  C401  1  0.96005395  0.21801826  0.77602019  1
  C  C402  1  0.00310161  0.15664905  0.78407401  1
  C  C403  1  0.99300791  0.13908716  0.84335929  1
  C  C404  1  0.97609678  0.22777776  0.70829290  1
  C  C405  1  0.05666348  0.11412175  0.72339616  1
  C  C406  1  0.06852569  0.20764512  0.67535494  1
  C  C407  1  0.11202342  0.14619254  0.68347226  1
  C  C408  1  0.19696601  0.12026558  0.65537915  1
  C  C409  1  0.23857221  0.15603805  0.61903815  1
  C  C410  1  0.19543699  0.21697921  0.61089025  1
  C  C411  1  0.10979527  0.24304216  0.63907667  1
  C  C412  1  0.95455193  0.17902988  0.68389874  1
  C  C413  1  0.99761160  0.11765835  0.69251221  1
  C  C414  1  0.98278636  0.06781020  0.67531373  1
  C  C415  1  0.92454285  0.07940447  0.64902939  1
  C  C416  1  0.88241539  0.14008170  0.63990227  1
  C  C417  1  0.89743256  0.19038936  0.65717449  1
  C  C418  1  0.90114356  0.24584026  0.88632506  1
  C  C419  1  0.94149987  0.18401313  0.89450975  1
  C  C420  1  0.85422519  0.28949506  0.94654866  1
  C  C421  1  0.92606524  0.17432436  0.96220361  1
  C  C422  1  0.91790597  0.28110770  0.97437159  1
  C  C423  1  0.95583882  0.21884281  0.98380906  1
  C  C424  1  0.01507516  0.20309767  0.00892353  1
  C  C425  1  0.03774743  0.24995363  0.02381646  1
  C  C426  1  0.00147853  0.31140146  0.01321369  1
  C  C427  1  0.94102571  0.32727901  0.98857262  1
  C  C428  1  0.79475420  0.26212005  0.98898729  1
  C  C429  1  0.83384589  0.19986539  0.99762906  1
  C  C430  1  0.78906106  0.16827462  0.03682872  1
  C  C431  1  0.70422916  0.19905448  0.06729703  1
  C  C432  1  0.66501669  0.26035396  0.05757086  1
  C  C433  1  0.71035183  0.29218963  0.01812090  1
  C  C434  1  0.78651759  0.33192595  0.82074225  1
  C  C435  1  0.75691951  0.38825950  0.78970678  1
  C  C436  1  0.80560829  0.42252038  0.76232288  1
  C  C437  1  0.77774133  0.47334174  0.73198708  1
  C  C438  1  0.70219250  0.48906462  0.72682448  1
  C  C439  1  0.65317931  0.45486257  0.75440359  1
  C  C440  1  0.67985472  0.40559241  0.78664986  1
  C  C441  1  0.67249415  0.54387191  0.69534955  1
  C  C442  1  0.10128364  0.07188256  0.86979518  1
  C  C443  1  0.17129452  0.01300227  0.83603460  1
  C  C444  1  0.24404740  0.01463909  0.79211147  1
  C  C445  1  0.30878587  0.95907202  0.76143462  1
  C  C446  1  0.30057502  0.90185108  0.77482875  1
  C  C447  1  0.22689018  0.90019734  0.81758785  1
  C  C448  1  0.16256372  0.95567758  0.84794553  1
  C  C449  1  0.37174652  0.84236095  0.74721889  1
  C  C450  1  0.95250256  0.96383746  0.52330897  1
  C  C451  1  0.92208872  0.01932642  0.49898902  1
  C  C452  1  0.03016116  0.94509668  0.52518857  1
  C  C453  1  0.83712781  0.04887079  0.49718828  1
  C  C454  1  0.07230069  0.88700914  0.55100286  1
  C  C455  1  0.84920044  0.05775315  0.42993275  1
  C  C456  1  0.10086037  0.90827702  0.59635355  1
  C  C457  1  0.08704820  0.89325970  0.65646589  1
  C  C458  1  0.12413807  0.91170165  0.69018906  1
  C  C459  1  0.17443465  0.94478093  0.66378792  1
  C  C460  1  0.81246815  0.03942393  0.39651330  1
  C  C461  1  0.80002980  0.11547382  0.52947593  1
  C  C462  1  0.15183962  0.84935148  0.49748126  1
  C  C463  1  0.17883518  0.78680503  0.47584361  1
  C  C464  1  0.25408802  0.75930132  0.42594547  1
  C  C465  1  0.30107518  0.79446313  0.39831536  1
  C  C466  1  0.72580504  0.14263044  0.57919279  1
  C  C467  1  0.91857361  0.88635802  0.49229987  1
  C  C468  1  0.86369247  0.85165289  0.51913209  1
  C  C469  1  0.77892918  0.88430565  0.54040534  1
  C  C470  1  0.72601842  0.85565396  0.57319526  1
  C  C471  1  0.75789568  0.79335468  0.58443905  1
  C  C472  1  0.84256566  0.75955559  0.56090659  1
  C  C473  1  0.89513848  0.78888629  0.52848829  1
  C  C474  1  0.70138926  0.76430279  0.62287171  1
  C  C475  1  0.06416960  0.51990761  0.96811399  1
  C  C476  1  0.00776041  0.52190224  0.94271798  1
  C  C477  1  0.00551882  0.54626796  0.88177235  1
  C  C478  1  0.05561070  0.49869259  0.02582088  1
  C  C479  1  0.11027680  0.49413982  0.06093502  1
  C  C480  1  0.05285025  0.53007268  0.12466688  1
  C  C481  1  0.00952302  0.49202146  0.84430529  1
  C  C482  1  0.06799620  0.46373606  0.78609543  1
  C  C483  1  0.06463869  0.41241198  0.75879948  1
  C  C484  1  0.00294459  0.39031639  0.78969322  1
  C  C485  1  0.05650027  0.58065889  0.15193033  1
  C  C486  1  0.14269413  0.42521530  0.06996724  1
  C  C487  1  0.91990062  0.59655259  0.89882680  1
  C  C488  1  0.90056367  0.65901662  0.88854080  1
  C  C489  1  0.81827960  0.70001571  0.91105248  1
  C  C490  1  0.75616571  0.67866735  0.94306017  1
  C  C491  1  0.22427069  0.38455894  0.04772642  1
  C  C492  1  0.19988307  0.49151843  0.89559857  1
  C  C493  1  0.25511140  0.52318050  0.85851526  1
  C  C494  1  0.27072190  0.56485881  0.88939768  1
  C  C495  1  0.32020746  0.59595795  0.85631169  1
  C  C496  1  0.35474914  0.58567660  0.79145780  1
  C  C497  1  0.33865087  0.54461577  0.76032819  1
  C  C498  1  0.28881553  0.51363005  0.79397498  1
  C  C499  1  0.41024859  0.61706269  0.75673929  1
  O  O500  1  0.45289202  0.30121283  0.31752310  1
  O  O501  1  0.52357831  0.20014134  0.71155128  1
  O  O502  1  0.48910420  0.19763168  0.42925643  1
  O  O503  1  0.38111207  0.28903246  0.45721095  1
  O  O504  1  0.39230754  0.17611772  0.96186490  1
  O  O505  1  0.36845015  0.28183719  0.22858703  1
  O  O506  1  0.50549662  0.25273877  0.17516762  1
  O  O507  1  0.13449204  0.67651678  0.18026543  1
  O  O508  1  0.29949880  0.41358255  0.30725765  1
  O  O509  1  0.38086583  0.45524853  0.32660304  1
  O  O510  1  0.96520426  0.92182930  0.14956253  1
  O  O511  1  0.63788028  0.20808619  0.23330042  1
  O  O512  1  0.56227919  0.15515278  0.29164362  1
  O  O513  1  0.09302353  0.07303754  0.45613998  1
  O  O514  1  0.37470633  0.20136111  0.35199917  1
  O  O515  1  0.26770021  0.29344996  0.36966671  1
  O  O516  1  0.87350457  0.45957166  0.06324339  1
  O  O517  1  0.56075886  0.39111939  0.30288188  1
  O  O518  1  0.57112144  0.35109434  0.21193625  1
  O  O519  1  0.54710798  0.69878717  0.68247690  1
  O  O520  1  0.47642169  0.79985866  0.28844872  1
  O  O521  1  0.51089580  0.80236832  0.57074357  1
  O  O522  1  0.61888793  0.71096754  0.54278905  1
  O  O523  1  0.60769246  0.82388228  0.03813510  1
  O  O524  1  0.63154985  0.71816281  0.77141297  1
  O  O525  1  0.49450338  0.74726123  0.82483238  1
  O  O526  1  0.86550796  0.32348322  0.81973457  1
  O  O527  1  0.70050120  0.58641745  0.69274235  1
  O  O528  1  0.61913417  0.54475147  0.67339696  1
  O  O529  1  0.03479574  0.07817070  0.85043747  1
  O  O530  1  0.36211972  0.79191381  0.76669958  1
  O  O531  1  0.43772081  0.84484722  0.70835638  1
  O  O532  1  0.90697647  0.92696246  0.54386002  1
  O  O533  1  0.62529367  0.79863889  0.64800083  1
  O  O534  1  0.73229979  0.70655004  0.63033329  1
  O  O535  1  0.12649543  0.54042834  0.93675661  1
  O  O536  1  0.43924114  0.60888061  0.69711812  1
  O  O537  1  0.42887856  0.64890566  0.78806375  1
