# generated using pymatgen
data_LaH12C12(NO3)3
_symmetry_space_group_name_H-M   'P 1'
_cell_length_a   4.07299901
_cell_length_b   11.68981016
_cell_length_c   14.97765866
_cell_angle_alpha   95.25433325
_cell_angle_beta   84.76586438
_cell_angle_gamma   91.86637257
_symmetry_Int_Tables_number   1
_chemical_formula_structural   LaH12C12(NO3)3
_chemical_formula_sum   'La2 H24 C24 N6 O18'
_cell_volume   706.95656546
_cell_formula_units_Z   2
loop_
 _symmetry_equiv_pos_site_id
 _symmetry_equiv_pos_as_xyz
  1  'x, y, z'
loop_
 _atom_site_type_symbol
 _atom_site_label
 _atom_site_symmetry_multiplicity
 _atom_site_fract_x
 _atom_site_fract_y
 _atom_site_fract_z
 _atom_site_occupancy
 _atom_site_charge
  La  La0  1  0.75832676  0.75156790  0.68044316  1 1.828854
  La  La1  1  0.24167217  0.24842909  0.31955727  1 1.82882
  H  H2  1  0.33779861  0.06190935  0.54748076  1 0.136973
  H  H3  1  0.53136194  0.09498735  0.64646115  1 0.09407
  H  H4  1  0.81730629  0.12666234  0.76186422  1 0.152865
  H  H5  1  0.10062750  0.24821127  0.77026213  1 0.1404
  H  H6  1  0.53413187  0.25861834  0.53494567  1 0.122116
  H  H7  1  0.81610129  0.37903125  0.53156876  1 0.157467
  H  H8  1  0.10100924  0.39646345  0.66442439  1 0.05534
  H  H9  1  0.32921465  0.46128139  0.74967463  1 0.1413
  H  H10  1  0.00334460  0.76451198  0.99424755  1 0.141442
  H  H11  1  0.78719317  0.87282144  0.94867895  1 0.044144
  H  H12  1  0.46166449  0.82973075  0.07845144  1 0.13562
  H  H13  1  0.17054363  0.94524564  0.10637409  1 0.134124
  H  H14  1  0.66218455  0.93808746  0.45251857  1 0.136948
  H  H15  1  0.46862925  0.90501084  0.35353831  1 0.094086
  H  H16  1  0.18268283  0.87333489  0.23813567  1 0.152821
  H  H17  1  0.89935148  0.75178606  0.22973717  1 0.140497
  H  H18  1  0.46584626  0.74137528  0.46505536  1 0.122116
  H  H19  1  0.18388138  0.62096417  0.46842939  1 0.157404
  H  H20  1  0.89898542  0.60353467  0.33557331  1 0.055284
  H  H21  1  0.67077373  0.53871529  0.25032381  1 0.141267
  H  H22  1  0.99667425  0.23549748  0.00575328  1 0.141389
  H  H23  1  0.21282945  0.12718998  0.05132114  1 0.044157
  H  H24  1  0.53835914  0.17027751  0.92154772  1 0.135608
  H  H25  1  0.82948340  0.05476061  0.89362580  1 0.13401
  C  C26  1  0.14428458  0.96289176  0.65182652  1 0.6378
  C  C27  1  0.28473735  0.07507196  0.62092049  1 -0.207489
  C  C28  1  0.90443504  0.20199168  0.72818466  1 -0.258002
  C  C29  1  0.64228815  0.28320167  0.73220657  1 0.432193
  C  C30  1  0.99783933  0.22684347  0.56682840  1 0.440043
  C  C31  1  0.73462230  0.30795275  0.57141003  1 -0.236571
  C  C32  1  0.35713603  0.43311497  0.67724332  1 -0.197394
  C  C33  1  0.42554981  0.54108744  0.62978187  1 0.610499
  C  C34  1  0.05641943  0.76361119  0.85224497  1 0.623331
  C  C35  1  0.03405923  0.82896818  0.94493503  1 -0.192763
  C  C36  1  0.34774335  0.00282284  0.91996652  1 0.440161
  C  C37  1  0.39497568  0.91336213  0.05916143  1 -0.261453
  C  C38  1  0.85570881  0.03710442  0.34817373  1 0.637763
  C  C39  1  0.71525444  0.92492630  0.37907885  1 -0.207469
  C  C40  1  0.09555403  0.79800169  0.27181513  1 -0.258155
  C  C41  1  0.35771295  0.71679323  0.26778850  1 0.432194
  C  C42  1  0.00214725  0.77315109  0.43317085  1 0.440046
  C  C43  1  0.26536376  0.69204070  0.42858884  1 -0.236435
  C  C44  1  0.64285048  0.56688340  0.32275506  1 -0.197406
  C  C45  1  0.57442102  0.45890766  0.37022293  1 0.610553
  C  C46  1  0.94362377  0.23640180  0.14775470  1 0.623322
  C  C47  1  0.96595731  0.17103783  0.05506684  1 -0.192782
  C  C48  1  0.65227857  0.99718432  0.08003326  1 0.440052
  C  C49  1  0.60504886  0.08664532  0.94083913  1 -0.261283
  N  N50  1  0.05138767  0.16589290  0.63770529  1 -0.070207
  N  N51  1  0.62077773  0.35403029  0.66292671  1 -0.097311
  N  N52  1  0.30814470  0.90341240  0.96556617  1 -0.093124
  N  N53  1  0.94859715  0.83410289  0.36229507  1 -0.070185
  N  N54  1  0.37921657  0.64596562  0.33707276  1 -0.097346
  N  N55  1  0.69187176  0.09659411  0.03443311  1 -0.093081
  O  O56  1  0.30608294  0.87083137  0.62985591  1 -0.643199
  O  O57  1  0.86035422  0.96168524  0.69410645  1 -0.5496
  O  O58  1  0.17243377  0.21036193  0.49363151  1 -0.482414
  O  O59  1  0.44854552  0.29293577  0.80164005  1 -0.397883
  O  O60  1  0.68793849  0.55611595  0.58042544  1 -0.527531
  O  O61  1  0.21835326  0.62296790  0.65113624  1 -0.665599
  O  O62  1  0.81811112  0.69393718  0.83614998  1 -0.57424
  O  O63  1  0.29315059  0.78391412  0.79328887  1 -0.628769
  O  O64  1  0.17772109  0.01738388  0.85735960  1 -0.385186
  O  O65  1  0.69391355  0.12916845  0.37014437  1 -0.643212
  O  O66  1  0.13964319  0.03831087  0.30589468  1 -0.549565
  O  O67  1  0.82755589  0.78963421  0.50636773  1 -0.482456
  O  O68  1  0.55143761  0.70706195  0.19836410  1 -0.39781
  O  O69  1  0.31208337  0.44387987  0.41956960  1 -0.527348
  O  O70  1  0.78165394  0.37702912  0.34886453  1 -0.665733
  O  O71  1  0.18188898  0.30606882  0.16385374  1 -0.574164
  O  O72  1  0.70684546  0.21608866  0.20671699  1 -0.628785
  O  O73  1  0.82230252  0.98262292  0.14263974  1 -0.38513
