# generated using pymatgen
data_Zn4H24C42O13
_symmetry_space_group_name_H-M   'P 1'
_cell_length_a   25.04852232
_cell_length_b   23.85686196
_cell_length_c   17.31524164
_cell_angle_alpha   90.00000000
_cell_angle_beta   92.30187505
_cell_angle_gamma   90.00000000
_symmetry_Int_Tables_number   1
_chemical_formula_structural   Zn4H24C42O13
_chemical_formula_sum   'Zn16 H96 C168 O52'
_cell_volume   10338.87782427
_cell_formula_units_Z   4
loop_
 _symmetry_equiv_pos_site_id
 _symmetry_equiv_pos_as_xyz
  1  'x, y, z'
loop_
 _atom_site_type_symbol
 _atom_site_label
 _atom_site_symmetry_multiplicity
 _atom_site_fract_x
 _atom_site_fract_y
 _atom_site_fract_z
 _atom_site_occupancy
 _atom_site_charge
  Zn  Zn0  1  0.35565693  0.43292492  0.18776927  1 0.960543
  Zn  Zn1  1  0.85565693  0.93292492  0.18776927  1 0.960543
  Zn  Zn2  1  0.35565693  0.56707508  0.18776927  1 0.960543
  Zn  Zn3  1  0.85565693  0.06707508  0.18776927  1 0.960543
  Zn  Zn4  1  0.42121910  0.50000000  0.32148716  1 0.952803
  Zn  Zn5  1  0.29423391  0.50000000  0.31760627  1 0.964046
  Zn  Zn6  1  0.92121910  -0.00000000  0.32148716  1 0.952803
  Zn  Zn7  1  0.79423391  -0.00000000  0.31760627  1 0.964046
  Zn  Zn8  1  0.64434307  0.43292492  0.81223073  1 0.960543
  Zn  Zn9  1  0.14434307  0.93292492  0.81223073  1 0.960543
  Zn  Zn10  1  0.64434307  0.56707508  0.81223073  1 0.960543
  Zn  Zn11  1  0.14434307  0.06707508  0.81223073  1 0.960543
  Zn  Zn12  1  0.57878090  0.50000000  0.67851284  1 0.952803
  Zn  Zn13  1  0.70576609  0.50000000  0.68239373  1 0.964046
  Zn  Zn14  1  0.07878090  -0.00000000  0.67851284  1 0.952803
  Zn  Zn15  1  0.20576609  -0.00000000  0.68239373  1 0.964046
  H  H16  1  0.35503220  0.40978789  0.80560251  1 0.101785
  H  H17  1  0.35071993  0.41002978  0.94991693  1 0.111106
  H  H18  1  0.09531387  0.31725674  0.33454730  1 0.106998
  H  H19  1  0.16788525  0.38930157  0.33789116  1 0.112442
  H  H20  1  0.24890580  0.29893909  0.16286012  1 0.113287
  H  H21  1  0.17625123  0.22696693  0.15848199  1 0.106048
  H  H22  1  0.97024023  0.19021912  0.15027692  1 0.113416
  H  H23  1  0.05044985  0.10829352  0.34303116  1 0.11064
  H  H24  1  0.12331185  0.17953543  0.34169301  1 0.108817
  H  H25  1  0.04364150  0.26134569  0.14780798  1 0.106447
  H  H26  1  0.85503220  0.90978789  0.80560251  1 0.101785
  H  H27  1  0.85071993  0.91002978  0.94991693  1 0.111106
  H  H28  1  0.59531387  0.81725674  0.33454730  1 0.106998
  H  H29  1  0.66788525  0.88930157  0.33789116  1 0.112442
  H  H30  1  0.74890580  0.79893909  0.16286012  1 0.113287
  H  H31  1  0.67625123  0.72696693  0.15848199  1 0.106048
  H  H32  1  0.47024023  0.69021912  0.15027692  1 0.113416
  H  H33  1  0.55044985  0.60829352  0.34303116  1 0.11064
  H  H34  1  0.62331185  0.67953543  0.34169301  1 0.108817
  H  H35  1  0.54364150  0.76134569  0.14780798  1 0.106447
  H  H36  1  0.35503220  0.59021211  0.80560251  1 0.101785
  H  H37  1  0.35071993  0.58997022  0.94991693  1 0.111106
  H  H38  1  0.09531387  0.68274326  0.33454730  1 0.106998
  H  H39  1  0.16788525  0.61069843  0.33789116  1 0.112443
  H  H40  1  0.24890580  0.70106091  0.16286012  1 0.113287
  H  H41  1  0.17625123  0.77303307  0.15848199  1 0.106048
  H  H42  1  0.97024023  0.80978088  0.15027692  1 0.113417
  H  H43  1  0.05044985  0.89170648  0.34303116  1 0.11064
  H  H44  1  0.12331185  0.82046457  0.34169301  1 0.108817
  H  H45  1  0.04364150  0.73865431  0.14780798  1 0.106447
  H  H46  1  0.85503220  0.09021211  0.80560251  1 0.101785
  H  H47  1  0.85071993  0.08997022  0.94991693  1 0.111106
  H  H48  1  0.59531387  0.18274326  0.33454730  1 0.106998
  H  H49  1  0.66788525  0.11069843  0.33789116  1 0.112443
  H  H50  1  0.74890580  0.20106091  0.16286012  1 0.113287
  H  H51  1  0.67625123  0.27303307  0.15848199  1 0.106048
  H  H52  1  0.47024023  0.30978088  0.15027692  1 0.113417
  H  H53  1  0.55044985  0.39170648  0.34303116  1 0.11064
  H  H54  1  0.62331185  0.32046457  0.34169301  1 0.108817
  H  H55  1  0.54364150  0.23865431  0.14780798  1 0.106447
  H  H56  1  0.27610359  0.50000000  0.54953267  1 0.112716
  H  H57  1  0.27298916  0.50000000  0.69391494  1 0.106155
  H  H58  1  0.44503601  0.50000000  0.71044359  1 0.11301
  H  H59  1  0.44766942  0.50000000  0.56698530  1 0.117398
  H  H60  1  0.77610359  -0.00000000  0.54953267  1 0.112716
  H  H61  1  0.77298916  -0.00000000  0.69391494  1 0.106155
  H  H62  1  0.94503601  -0.00000000  0.71044359  1 0.11301
  H  H63  1  0.94766942  -0.00000000  0.56698530  1 0.117398
  H  H64  1  0.64496780  0.40978789  0.19439749  1 0.101784
  H  H65  1  0.64928007  0.41002978  0.05008307  1 0.111106
  H  H66  1  0.90468613  0.31725674  0.66545270  1 0.106998
  H  H67  1  0.83211475  0.38930157  0.66210884  1 0.112442
  H  H68  1  0.75109420  0.29893909  0.83713988  1 0.113288
  H  H69  1  0.82374877  0.22696693  0.84151801  1 0.106048
  H  H70  1  0.02975977  0.19021912  0.84972308  1 0.113417
  H  H71  1  0.94955015  0.10829352  0.65696884  1 0.11064
  H  H72  1  0.87668815  0.17953543  0.65830699  1 0.108817
  H  H73  1  0.95635850  0.26134569  0.85219202  1 0.106447
  H  H74  1  0.14496780  0.90978789  0.19439749  1 0.101784
  H  H75  1  0.14928007  0.91002978  0.05008307  1 0.111106
  H  H76  1  0.40468613  0.81725674  0.66545270  1 0.106998
  H  H77  1  0.33211475  0.88930157  0.66210884  1 0.112442
  H  H78  1  0.25109420  0.79893909  0.83713988  1 0.113288
  H  H79  1  0.32374877  0.72696693  0.84151801  1 0.106048
  H  H80  1  0.52975977  0.69021912  0.84972308  1 0.113417
  H  H81  1  0.44955015  0.60829352  0.65696884  1 0.11064
  H  H82  1  0.37668815  0.67953543  0.65830699  1 0.108817
  H  H83  1  0.45635850  0.76134569  0.85219202  1 0.106447
  H  H84  1  0.64496780  0.59021211  0.19439749  1 0.101784
  H  H85  1  0.64928007  0.58997022  0.05008307  1 0.111106
  H  H86  1  0.90468613  0.68274326  0.66545270  1 0.106998
  H  H87  1  0.83211475  0.61069843  0.66210884  1 0.112443
  H  H88  1  0.75109420  0.70106091  0.83713988  1 0.113288
  H  H89  1  0.82374877  0.77303307  0.84151801  1 0.106048
  H  H90  1  0.02975977  0.80978088  0.84972308  1 0.113417
  H  H91  1  0.94955015  0.89170648  0.65696884  1 0.11064
  H  H92  1  0.87668815  0.82046457  0.65830699  1 0.108817
  H  H93  1  0.95635850  0.73865431  0.85219202  1 0.106447
  H  H94  1  0.14496780  0.09021211  0.19439749  1 0.101784
  H  H95  1  0.14928007  0.08997022  0.05008307  1 0.111106
  H  H96  1  0.40468613  0.18274326  0.66545270  1 0.106998
  H  H97  1  0.33211475  0.11069843  0.66210884  1 0.112443
  H  H98  1  0.25109420  0.20106091  0.83713988  1 0.113288
  H  H99  1  0.32374877  0.27303307  0.84151801  1 0.106048
  H  H100  1  0.52975977  0.30978088  0.84972308  1 0.113417
  H  H101  1  0.44955015  0.39170648  0.65696884  1 0.11064
  H  H102  1  0.37668815  0.32046457  0.65830699  1 0.108817
  H  H103  1  0.45635850  0.23865431  0.85219202  1 0.106447
  H  H104  1  0.72389641  0.50000000  0.45046733  1 0.112716
  H  H105  1  0.72701084  0.50000000  0.30608506  1 0.106155
  H  H106  1  0.55496399  0.50000000  0.28955641  1 0.11301
  H  H107  1  0.55233058  0.50000000  0.43301470  1 0.117397
  H  H108  1  0.22389641  -0.00000000  0.45046733  1 0.112716
  H  H109  1  0.22701084  -0.00000000  0.30608506  1 0.106155
  H  H110  1  0.05496399  -0.00000000  0.28955641  1 0.11301
  H  H111  1  0.05233058  -0.00000000  0.43301470  1 0.117397
  C  C112  1  0.35432071  0.44918535  0.83748622  1 -0.137667
  C  C113  1  0.35172308  0.44915418  0.91761093  1 -0.081006
  C  C114  1  0.25558697  0.39187623  0.25261822  1 0.605698
  C  C115  1  0.12901324  0.31340321  0.29686947  1 -0.140483
  C  C116  1  0.16929343  0.35358406  0.29890294  1 -0.078795
  C  C117  1  0.21255270  0.34851924  0.25043295  1 -0.050931
  C  C118  1  0.21497496  0.30271391  0.19989925  1 -0.079585
  C  C119  1  0.17445095  0.26273698  0.19758608  1 -0.142447
  C  C120  1  0.13108120  0.26772834  0.24596126  1 0.078214
  C  C121  1  0.00414505  0.18820240  0.19156097  1 -0.079157
  C  C122  1  0.00595161  0.14527467  0.24688210  1 -0.051381
  C  C123  1  0.04915974  0.14196606  0.30066188  1 -0.078861
  C  C124  1  0.08977571  0.18163705  0.29966128  1 -0.142891
  C  C125  1  0.08805862  0.22489755  0.24474950  1 0.077248
  C  C126  1  0.04506657  0.22761399  0.19034166  1 -0.142402
  C  C127  1  0.96156797  0.10380473  0.24964446  1 0.604188
  C  C128  1  0.85432071  0.94918535  0.83748622  1 -0.137667
  C  C129  1  0.85172308  0.94915418  0.91761093  1 -0.081006
  C  C130  1  0.75558697  0.89187623  0.25261822  1 0.605698
  C  C131  1  0.62901324  0.81340321  0.29686947  1 -0.140483
  C  C132  1  0.66929343  0.85358406  0.29890294  1 -0.078795
  C  C133  1  0.71255270  0.84851924  0.25043295  1 -0.050931
  C  C134  1  0.71497496  0.80271391  0.19989925  1 -0.079585
  C  C135  1  0.67445095  0.76273698  0.19758608  1 -0.142447
  C  C136  1  0.63108120  0.76772834  0.24596126  1 0.078214
  C  C137  1  0.50414505  0.68820240  0.19156097  1 -0.079157
  C  C138  1  0.50595161  0.64527467  0.24688210  1 -0.051381
  C  C139  1  0.54915974  0.64196606  0.30066188  1 -0.078861
  C  C140  1  0.58977571  0.68163705  0.29966128  1 -0.142891
  C  C141  1  0.58805862  0.72489755  0.24474950  1 0.077248
  C  C142  1  0.54506657  0.72761399  0.19034166  1 -0.142402
  C  C143  1  0.46156797  0.60380473  0.24964446  1 0.604188
  C  C144  1  0.35432071  0.55081465  0.83748622  1 -0.137667
  C  C145  1  0.35172308  0.55084582  0.91761093  1 -0.081006
  C  C146  1  0.25558697  0.60812377  0.25261822  1 0.605698
  C  C147  1  0.12901324  0.68659679  0.29686947  1 -0.140483
  C  C148  1  0.16929343  0.64641594  0.29890294  1 -0.078795
  C  C149  1  0.21255270  0.65148076  0.25043295  1 -0.050931
  C  C150  1  0.21497496  0.69728609  0.19989925  1 -0.079585
  C  C151  1  0.17445095  0.73726302  0.19758608  1 -0.142447
  C  C152  1  0.13108120  0.73227166  0.24596126  1 0.078214
  C  C153  1  0.00414505  0.81179760  0.19156097  1 -0.079157
  C  C154  1  0.00595161  0.85472533  0.24688210  1 -0.051381
  C  C155  1  0.04915974  0.85803394  0.30066188  1 -0.078861
  C  C156  1  0.08977571  0.81836295  0.29966128  1 -0.142891
  C  C157  1  0.08805862  0.77510245  0.24474950  1 0.077248
  C  C158  1  0.04506657  0.77238601  0.19034166  1 -0.142402
  C  C159  1  0.96156797  0.89619527  0.24964446  1 0.604188
  C  C160  1  0.85432071  0.05081465  0.83748622  1 -0.137667
  C  C161  1  0.85172308  0.05084582  0.91761093  1 -0.081006
  C  C162  1  0.75558697  0.10812377  0.25261822  1 0.605698
  C  C163  1  0.62901324  0.18659679  0.29686947  1 -0.140483
  C  C164  1  0.66929343  0.14641594  0.29890294  1 -0.078795
  C  C165  1  0.71255270  0.15148076  0.25043295  1 -0.050931
  C  C166  1  0.71497496  0.19728609  0.19989925  1 -0.079585
  C  C167  1  0.67445095  0.23726302  0.19758608  1 -0.142447
  C  C168  1  0.63108120  0.23227166  0.24596126  1 0.078214
  C  C169  1  0.50414505  0.31179760  0.19156097  1 -0.079157
  C  C170  1  0.50595161  0.35472533  0.24688210  1 -0.051381
  C  C171  1  0.54915974  0.35803394  0.30066188  1 -0.078861
  C  C172  1  0.58977571  0.31836295  0.29966128  1 -0.142891
  C  C173  1  0.58805862  0.27510245  0.24474950  1 0.077248
  C  C174  1  0.54506657  0.27238601  0.19034166  1 -0.142402
  C  C175  1  0.46156797  0.39619527  0.24964446  1 0.604188
  C  C176  1  0.36252710  0.50000000  0.46348844  1 0.603986
  C  C177  1  0.31272476  0.50000000  0.58556052  1 -0.083796
  C  C178  1  0.31115444  0.50000000  0.66569182  1 -0.141812
  C  C179  1  0.35866995  0.50000000  0.71137392  1 0.080748
  C  C180  1  0.40788799  0.50000000  0.67544294  1 -0.135496
  C  C181  1  0.40955495  0.50000000  0.59510388  1 -0.078425
  C  C182  1  0.36195471  0.50000000  0.54964823  1 -0.056542
  C  C183  1  0.35606110  0.50000000  0.79686605  1 0.080748
  C  C184  1  0.35078058  0.50000000  0.95813694  1 -0.05152
  C  C185  1  0.35030430  0.50000000  0.04419890  1 0.60603
  C  C186  1  0.86252710  -0.00000000  0.46348844  1 0.603986
  C  C187  1  0.81272476  -0.00000000  0.58556052  1 -0.083796
  C  C188  1  0.81115444  -0.00000000  0.66569182  1 -0.141812
  C  C189  1  0.85866995  -0.00000000  0.71137392  1 0.080748
  C  C190  1  0.90788799  -0.00000000  0.67544294  1 -0.135496
  C  C191  1  0.90955495  -0.00000000  0.59510388  1 -0.078425
  C  C192  1  0.86195471  -0.00000000  0.54964823  1 -0.056542
  C  C193  1  0.85606110  -0.00000000  0.79686605  1 0.080748
  C  C194  1  0.85078058  -0.00000000  0.95813694  1 -0.05152
  C  C195  1  0.85030430  -0.00000000  0.04419890  1 0.60603
  C  C196  1  0.64567929  0.44918535  0.16251378  1 -0.137667
  C  C197  1  0.64827692  0.44915418  0.08238907  1 -0.081006
  C  C198  1  0.74441303  0.39187623  0.74738178  1 0.605698
  C  C199  1  0.87098676  0.31340321  0.70313053  1 -0.140483
  C  C200  1  0.83070657  0.35358406  0.70109706  1 -0.078795
  C  C201  1  0.78744730  0.34851924  0.74956705  1 -0.050931
  C  C202  1  0.78502504  0.30271391  0.80010075  1 -0.079585
  C  C203  1  0.82554905  0.26273698  0.80241392  1 -0.142448
  C  C204  1  0.86891880  0.26772834  0.75403874  1 0.078214
  C  C205  1  0.99585495  0.18820240  0.80843903  1 -0.079157
  C  C206  1  0.99404839  0.14527467  0.75311790  1 -0.051381
  C  C207  1  0.95084026  0.14196606  0.69933812  1 -0.078861
  C  C208  1  0.91022429  0.18163705  0.70033872  1 -0.142891
  C  C209  1  0.91194138  0.22489755  0.75525050  1 0.077248
  C  C210  1  0.95493343  0.22761399  0.80965834  1 -0.142402
  C  C211  1  0.03843203  0.10380473  0.75035554  1 0.604188
  C  C212  1  0.14567929  0.94918535  0.16251378  1 -0.137667
  C  C213  1  0.14827692  0.94915418  0.08238907  1 -0.081006
  C  C214  1  0.24441303  0.89187623  0.74738178  1 0.605698
  C  C215  1  0.37098676  0.81340321  0.70313053  1 -0.140483
  C  C216  1  0.33070657  0.85358406  0.70109706  1 -0.078795
  C  C217  1  0.28744730  0.84851924  0.74956705  1 -0.050931
  C  C218  1  0.28502504  0.80271391  0.80010075  1 -0.079585
  C  C219  1  0.32554905  0.76273698  0.80241392  1 -0.142448
  C  C220  1  0.36891880  0.76772834  0.75403874  1 0.078214
  C  C221  1  0.49585495  0.68820240  0.80843903  1 -0.079157
  C  C222  1  0.49404839  0.64527467  0.75311790  1 -0.051381
  C  C223  1  0.45084026  0.64196606  0.69933812  1 -0.078861
  C  C224  1  0.41022429  0.68163705  0.70033872  1 -0.142891
  C  C225  1  0.41194138  0.72489755  0.75525050  1 0.077248
  C  C226  1  0.45493343  0.72761399  0.80965834  1 -0.142402
  C  C227  1  0.53843203  0.60380473  0.75035554  1 0.604188
  C  C228  1  0.64567929  0.55081465  0.16251378  1 -0.137667
  C  C229  1  0.64827692  0.55084582  0.08238907  1 -0.081006
  C  C230  1  0.74441303  0.60812377  0.74738178  1 0.605698
  C  C231  1  0.87098676  0.68659679  0.70313053  1 -0.140483
  C  C232  1  0.83070657  0.64641594  0.70109706  1 -0.078795
  C  C233  1  0.78744730  0.65148076  0.74956705  1 -0.050931
  C  C234  1  0.78502504  0.69728609  0.80010075  1 -0.079585
  C  C235  1  0.82554905  0.73726302  0.80241392  1 -0.142447
  C  C236  1  0.86891880  0.73227166  0.75403874  1 0.078214
  C  C237  1  0.99585495  0.81179760  0.80843903  1 -0.079157
  C  C238  1  0.99404839  0.85472533  0.75311790  1 -0.051381
  C  C239  1  0.95084026  0.85803394  0.69933812  1 -0.078861
  C  C240  1  0.91022429  0.81836295  0.70033872  1 -0.142891
  C  C241  1  0.91194138  0.77510245  0.75525050  1 0.077248
  C  C242  1  0.95493343  0.77238601  0.80965834  1 -0.142402
  C  C243  1  0.03843203  0.89619527  0.75035554  1 0.604188
  C  C244  1  0.14567929  0.05081465  0.16251378  1 -0.137667
  C  C245  1  0.14827692  0.05084582  0.08238907  1 -0.081006
  C  C246  1  0.24441303  0.10812377  0.74738178  1 0.605698
  C  C247  1  0.37098676  0.18659679  0.70313053  1 -0.140483
  C  C248  1  0.33070657  0.14641594  0.70109706  1 -0.078795
  C  C249  1  0.28744730  0.15148076  0.74956705  1 -0.050931
  C  C250  1  0.28502504  0.19728609  0.80010075  1 -0.079585
  C  C251  1  0.32554905  0.23726302  0.80241392  1 -0.142447
  C  C252  1  0.36891880  0.23227166  0.75403874  1 0.078214
  C  C253  1  0.49585495  0.31179760  0.80843903  1 -0.079157
  C  C254  1  0.49404839  0.35472533  0.75311790  1 -0.051381
  C  C255  1  0.45084026  0.35803394  0.69933812  1 -0.078861
  C  C256  1  0.41022429  0.31836295  0.70033872  1 -0.142891
  C  C257  1  0.41194138  0.27510245  0.75525050  1 0.077248
  C  C258  1  0.45493343  0.27238601  0.80965834  1 -0.142402
  C  C259  1  0.53843203  0.39619527  0.75035554  1 0.604188
  C  C260  1  0.63747290  0.50000000  0.53651156  1 0.603986
  C  C261  1  0.68727524  0.50000000  0.41443948  1 -0.083796
  C  C262  1  0.68884556  0.50000000  0.33430818  1 -0.141812
  C  C263  1  0.64133005  0.50000000  0.28862608  1 0.080748
  C  C264  1  0.59211201  0.50000000  0.32455706  1 -0.135496
  C  C265  1  0.59044505  0.50000000  0.40489612  1 -0.078425
  C  C266  1  0.63804529  0.50000000  0.45035177  1 -0.056542
  C  C267  1  0.64393890  0.50000000  0.20313395  1 0.080748
  C  C268  1  0.64921942  0.50000000  0.04186306  1 -0.05152
  C  C269  1  0.64969570  0.50000000  0.95580110  1 0.60603
  C  C270  1  0.13747290  -0.00000000  0.53651156  1 0.603986
  C  C271  1  0.18727524  -0.00000000  0.41443948  1 -0.083796
  C  C272  1  0.18884556  -0.00000000  0.33430818  1 -0.141812
  C  C273  1  0.14133005  -0.00000000  0.28862608  1 0.080748
  C  C274  1  0.09211201  -0.00000000  0.32455706  1 -0.135496
  C  C275  1  0.09044505  -0.00000000  0.40489612  1 -0.078425
  C  C276  1  0.13804529  -0.00000000  0.45035177  1 -0.056542
  C  C277  1  0.14393890  -0.00000000  0.20313395  1 0.080748
  C  C278  1  0.14921942  -0.00000000  0.04186306  1 -0.05152
  C  C279  1  0.14969570  -0.00000000  0.95580110  1 0.60603
  O  O280  1  0.35041838  0.45224640  0.07760516  1 -0.55034
  O  O281  1  0.29422840  0.38450411  0.20776349  1 -0.547793
  O  O282  1  0.25018215  0.43294239  0.29908053  1 -0.55098
  O  O283  1  0.92138899  0.11142286  0.20305766  1 -0.546615
  O  O284  1  0.96730482  0.06413159  0.29882325  1 -0.548922
  O  O285  1  0.85041838  0.95224640  0.07760516  1 -0.55034
  O  O286  1  0.79422840  0.88450411  0.20776349  1 -0.547793
  O  O287  1  0.75018215  0.93294239  0.29908053  1 -0.55098
  O  O288  1  0.42138899  0.61142286  0.20305766  1 -0.546615
  O  O289  1  0.46730482  0.56413159  0.29882325  1 -0.548922
  O  O290  1  0.35041838  0.54775360  0.07760516  1 -0.55034
  O  O291  1  0.29422840  0.61549589  0.20776349  1 -0.547793
  O  O292  1  0.25018215  0.56705761  0.29908053  1 -0.55098
  O  O293  1  0.92138899  0.88857714  0.20305766  1 -0.546615
  O  O294  1  0.96730482  0.93586841  0.29882325  1 -0.548922
  O  O295  1  0.85041838  0.04775360  0.07760516  1 -0.55034
  O  O296  1  0.79422840  0.11549589  0.20776349  1 -0.547793
  O  O297  1  0.75018215  0.06705761  0.29908053  1 -0.55098
  O  O298  1  0.42138899  0.38857714  0.20305766  1 -0.546615
  O  O299  1  0.46730482  0.43586841  0.29882325  1 -0.548922
  O  O300  1  0.35679011  0.50000000  0.25346700  1 -1.024722
  O  O301  1  0.40804970  0.50000000  0.43245337  1 -0.54455
  O  O302  1  0.31705203  0.50000000  0.42740456  1 -0.554017
  O  O303  1  0.85679011  -0.00000000  0.25346700  1 -1.024722
  O  O304  1  0.90804970  -0.00000000  0.43245337  1 -0.54455
  O  O305  1  0.81705203  -0.00000000  0.42740456  1 -0.554017
  O  O306  1  0.64958162  0.45224640  0.92239484  1 -0.55034
  O  O307  1  0.70577160  0.38450411  0.79223651  1 -0.547793
  O  O308  1  0.74981785  0.43294239  0.70091947  1 -0.55098
  O  O309  1  0.07861101  0.11142286  0.79694234  1 -0.546615
  O  O310  1  0.03269518  0.06413159  0.70117675  1 -0.548922
  O  O311  1  0.14958162  0.95224640  0.92239484  1 -0.55034
  O  O312  1  0.20577160  0.88450411  0.79223651  1 -0.547793
  O  O313  1  0.24981785  0.93294239  0.70091947  1 -0.55098
  O  O314  1  0.57861101  0.61142286  0.79694234  1 -0.546615
  O  O315  1  0.53269518  0.56413159  0.70117675  1 -0.548922
  O  O316  1  0.64958162  0.54775360  0.92239484  1 -0.55034
  O  O317  1  0.70577160  0.61549589  0.79223651  1 -0.547793
  O  O318  1  0.74981785  0.56705761  0.70091947  1 -0.55098
  O  O319  1  0.07861101  0.88857714  0.79694234  1 -0.546615
  O  O320  1  0.03269518  0.93586841  0.70117675  1 -0.548922
  O  O321  1  0.14958162  0.04775360  0.92239484  1 -0.55034
  O  O322  1  0.20577160  0.11549589  0.79223651  1 -0.547793
  O  O323  1  0.24981785  0.06705761  0.70091947  1 -0.55098
  O  O324  1  0.57861101  0.38857714  0.79694234  1 -0.546615
  O  O325  1  0.53269518  0.43586841  0.70117675  1 -0.548922
  O  O326  1  0.64320989  0.50000000  0.74653300  1 -1.024722
  O  O327  1  0.59195030  0.50000000  0.56754663  1 -0.54455
  O  O328  1  0.68294797  0.50000000  0.57259544  1 -0.554017
  O  O329  1  0.14320989  -0.00000000  0.74653300  1 -1.024722
  O  O330  1  0.09195030  -0.00000000  0.56754663  1 -0.54455
  O  O331  1  0.18294797  -0.00000000  0.57259544  1 -0.554017
