# generated using pymatgen
data_CuH2(C3O2)2
_symmetry_space_group_name_H-M   'P 1'
_cell_length_a   18.70222624
_cell_length_b   18.69883985
_cell_length_c   18.70013151
_cell_angle_alpha   59.99532048
_cell_angle_beta   59.99128881
_cell_angle_gamma   59.99273919
_symmetry_Int_Tables_number   1
_chemical_formula_structural   CuH2(C3O2)2
_chemical_formula_sum   'Cu12 H24 C72 O48'
_cell_volume   4623.48911903
_cell_formula_units_Z   12
loop_
 _symmetry_equiv_pos_site_id
 _symmetry_equiv_pos_as_xyz
  1  'x, y, z'
loop_
 _atom_site_type_symbol
 _atom_site_label
 _atom_site_symmetry_multiplicity
 _atom_site_fract_x
 _atom_site_fract_y
 _atom_site_fract_z
 _atom_site_occupancy
 _atom_site_charge
  Cu  Cu0  1  0.56582915  0.43417051  0.00000219  1 0.834388
  Cu  Cu1  1  0.43417911  0.56581938  -0.00000182  1 0.836193
  Cu  Cu2  1  0.00000060  -0.00000010  0.56579970  1 0.83514
  Cu  Cu3  1  0.99999767  0.99999817  0.43419537  1 0.835749
  Cu  Cu4  1  0.56618844  0.00000618  0.99999845  1 0.834827
  Cu  Cu5  1  0.43393575  0.99999277  0.00000257  1 0.834731
  Cu  Cu6  1  0.00000503  0.56579140  0.43420371  1 0.83605
  Cu  Cu7  1  0.99999289  0.43420843  0.56579621  1 0.834088
  Cu  Cu8  1  0.56579846  0.00000799  0.43419671  1 0.816618
  Cu  Cu9  1  0.43419805  0.99999131  0.56580598  1 0.814083
  Cu  Cu10  1  0.99999098  0.43426680  0.00000066  1 0.834698
  Cu  Cu11  1  0.00000793  0.56585727  -0.00000020  1 0.834344
  H  H12  1  0.26585174  0.49623284  0.97207756  1 0.135517
  H  H13  1  0.49624321  0.26584048  0.26583908  1 0.1357
  H  H14  1  0.97208089  0.26583100  0.26584220  1 0.135341
  H  H15  1  0.26583942  0.97208194  0.49623622  1 0.135638
  H  H16  1  0.26582089  0.97207956  0.26585235  1 0.135738
  H  H17  1  0.49623920  0.26585074  0.97207491  1 0.135456
  H  H18  1  0.97208158  0.26583477  0.49624370  1 0.135301
  H  H19  1  0.26585075  0.49624472  0.26582633  1 0.135662
  H  H20  1  0.26584215  0.26583827  0.49623531  1 0.135587
  H  H21  1  0.49624152  0.97207911  0.26584645  1 0.13576
  H  H22  1  0.97208140  0.49624303  0.26583200  1 0.135399
  H  H23  1  0.26582717  0.26584622  0.97208152  1 0.135353
  H  H24  1  0.50375009  0.73413821  0.02792468  1 0.135415
  H  H25  1  0.73415722  0.50375633  0.73416330  1 0.135603
  H  H26  1  0.73416540  0.02792058  0.73415085  1 0.135685
  H  H27  1  0.02791762  0.73416589  0.50375666  1 0.135332
  H  H28  1  0.02791867  0.73415514  0.73416129  1 0.135271
  H  H29  1  0.73415471  0.50375667  0.02792267  1 0.135352
  H  H30  1  0.73415985  0.02791761  0.50376436  1 0.135814
  H  H31  1  0.50376030  0.73414788  0.73416838  1 0.135554
  H  H32  1  0.73415678  0.73416166  0.50376478  1 0.135678
  H  H33  1  0.02791770  0.50374625  0.73416544  1 0.135253
  H  H34  1  0.50374778  0.02791985  0.73415233  1 0.135642
  H  H35  1  0.73416243  0.73414199  0.02791987  1 0.135456
  C  C36  1  0.29979718  0.42943527  0.97096188  1 -0.078658
  C  C37  1  0.42945481  0.29977905  0.29980272  1 -0.078712
  C  C38  1  0.97097527  0.29977428  0.29979743  1 -0.078286
  C  C39  1  0.29979023  0.97097620  0.42943495  1 -0.078844
  C  C40  1  0.29980150  0.97097205  0.29977008  1 -0.078218
  C  C41  1  0.42945681  0.29974889  0.97095858  1 -0.078911
  C  C42  1  0.97097586  0.29978312  0.42944320  1 -0.078275
  C  C43  1  0.29979742  0.42944835  0.29979147  1 -0.078074
  C  C44  1  0.29979579  0.29978636  0.42943582  1 -0.078698
  C  C45  1  0.42944877  0.97097279  0.29975852  1 -0.07907
  C  C46  1  0.97097663  0.42943903  0.29978600  1 -0.078462
  C  C47  1  0.29981247  0.29975562  0.97097673  1 -0.078721
  C  C48  1  0.57053667  0.70022724  0.02904274  1 -0.078857
  C  C49  1  0.70021263  0.57054960  0.70020009  1 -0.077661
  C  C50  1  0.70018195  0.02902731  0.70023869  1 -0.07824
  C  C51  1  0.02902315  0.70021459  0.57055782  1 -0.078403
  C  C52  1  0.02902378  0.70020852  0.70020937  1 -0.078306
  C  C53  1  0.70020754  0.57055099  0.02903777  1 -0.078291
  C  C54  1  0.70020648  0.02902327  0.57056749  1 -0.078749
  C  C55  1  0.57054873  0.70020523  0.70020745  1 -0.079014
  C  C56  1  0.70020457  0.70020995  0.57056629  1 -0.078634
  C  C57  1  0.02902240  0.57054952  0.70020920  1 -0.078177
  C  C58  1  0.57054063  0.02902665  0.70023556  1 -0.079033
  C  C59  1  0.70018001  0.70023141  0.02902395  1 -0.078764
  C  C60  1  0.38608968  0.38606370  0.97110905  1 -0.029004
  C  C61  1  0.43036138  0.43040060  0.97644149  1 0.584555
  C  C62  1  0.38610111  0.38608030  0.25671255  1 -0.028585
  C  C63  1  0.43035653  0.43041190  0.16279140  1 0.584264
  C  C64  1  0.97111404  0.25666675  0.38611004  1 -0.029256
  C  C65  1  0.97641778  0.16275131  0.43041340  1 0.584169
  C  C66  1  0.25668349  0.97111812  0.38609759  1 -0.028341
  C  C67  1  0.16275456  0.97641932  0.43040492  1 0.584319
  C  C68  1  0.38613028  0.97108852  0.25663475  1 -0.027905
  C  C69  1  0.43050773  0.97639472  0.16261247  1 0.584317
  C  C70  1  0.38613231  0.25663225  0.97108756  1 -0.028466
  C  C71  1  0.43050293  0.16261935  0.97639793  1 0.584511
  C  C72  1  0.97111536  0.38610426  0.38610185  1 -0.029167
  C  C73  1  0.97641175  0.43041722  0.43041338  1 0.584265
  C  C74  1  0.25668695  0.38609876  0.38609899  1 -0.028456
  C  C75  1  0.16277115  0.43040973  0.43040427  1 0.584042
  C  C76  1  0.38610552  0.25667496  0.38610442  1 -0.026942
  C  C77  1  0.43040629  0.16276908  0.43040850  1 0.581497
  C  C78  1  0.38610009  0.97111827  0.38608722  1 -0.026926
  C  C79  1  0.43041965  0.97641423  0.43040361  1 0.581819
  C  C80  1  0.97111416  0.38609471  0.25667892  1 -0.029125
  C  C81  1  0.97641323  0.43042372  0.16275264  1 0.584376
  C  C82  1  0.25670109  0.38608165  0.97111764  1 -0.028566
  C  C83  1  0.16276668  0.43041091  0.97641722  1 0.583968
  C  C84  1  0.61392034  0.61390872  0.02889103  1 -0.02906
  C  C85  1  0.56957807  0.56965150  0.02355928  1 0.58438
  C  C86  1  0.61391558  0.61390090  0.74328907  1 -0.028465
  C  C87  1  0.56958819  0.56964347  0.83720731  1 0.584187
  C  C88  1  0.74330820  0.02888127  0.61390823  1 -0.028403
  C  C89  1  0.83724154  0.02357997  0.56959651  1 0.584237
  C  C90  1  0.02888479  0.74332554  0.61389578  1 -0.029204
  C  C91  1  0.02358100  0.83724454  0.56958860  1 0.584138
  C  C92  1  0.02888483  0.61388663  0.74332149  1 -0.029163
  C  C93  1  0.02358653  0.56959093  0.83724754  1 0.58444
  C  C94  1  0.74329982  0.61390343  0.02888272  1 -0.028634
  C  C95  1  0.83723282  0.56960801  0.02358300  1 0.583896
  C  C96  1  0.61390020  0.02888114  0.61390478  1 -0.026897
  C  C97  1  0.56957768  0.02358543  0.56959577  1 0.581975
  C  C98  1  0.61389570  0.74331525  0.61390274  1 -0.026959
  C  C99  1  0.56958918  0.83722801  0.56959801  1 0.581689
  C  C100  1  0.74332121  0.61389533  0.61389793  1 -0.028604
  C  C101  1  0.83723177  0.56959101  0.56959105  1 0.58406
  C  C102  1  0.02888375  0.61389258  0.61389387  1 -0.029274
  C  C103  1  0.02358774  0.56958219  0.56958296  1 0.584369
  C  C104  1  0.61384929  0.02891129  0.74336549  1 -0.027877
  C  C105  1  0.56951342  0.02360437  0.83738818  1 0.58423
  C  C106  1  0.61385774  0.74334910  0.02891285  1 -0.028564
  C  C107  1  0.56952017  0.83737309  0.02360249  1 0.584458
  O  O108  1  0.50807553  0.38603402  0.97946298  1 -0.515255
  O  O109  1  0.38604563  0.50810816  0.12637416  1 -0.514913
  O  O110  1  0.97947230  0.12633982  0.50812413  1 -0.515345
  O  O111  1  0.12636377  0.97946715  0.38605306  1 -0.515219
  O  O112  1  0.50814103  0.97950472  0.12644502  1 -0.515008
  O  O113  1  0.38592856  0.12642823  0.97951717  1 -0.515034
  O  O114  1  0.97946177  0.50813645  0.38604919  1 -0.515841
  O  O115  1  0.12637072  0.38604608  0.50811947  1 -0.515528
  O  O116  1  0.50812259  0.12636590  0.38605016  1 -0.50925
  O  O117  1  0.38605694  0.97946124  0.50811422  1 -0.508173
  O  O118  1  0.97946373  0.38606864  0.12633998  1 -0.515287
  O  O119  1  0.12639562  0.50812147  0.97946026  1 -0.51484
  O  O120  1  0.61396065  0.49191971  0.02053928  1 -0.515112
  O  O121  1  0.49189294  0.61395250  0.87362129  1 -0.515037
  O  O122  1  0.87363917  0.02052618  0.49188536  1 -0.515072
  O  O123  1  0.02053030  0.87365408  0.61393748  1 -0.515263
  O  O124  1  0.02052915  0.49186609  0.87367084  1 -0.515147
  O  O125  1  0.87360454  0.61397019  0.02054628  1 -0.514921
  O  O126  1  0.49187955  0.02053830  0.61394466  1 -0.508324
  O  O127  1  0.61394511  0.87364270  0.49187872  1 -0.509401
  O  O128  1  0.87362698  0.49187778  0.61395815  1 -0.515457
  O  O129  1  0.02053958  0.61394747  0.49186866  1 -0.516016
  O  O130  1  0.61408935  0.02049571  0.87354863  1 -0.514882
  O  O131  1  0.49187398  0.87356120  0.02048612  1 -0.515095
  O  O132  1  0.49189815  0.61396286  0.02053321  1 -0.515138
  O  O133  1  0.61395272  0.49191038  0.87360037  1 -0.515034
  O  O134  1  0.02052638  0.87365571  0.49187646  1 -0.515273
  O  O135  1  0.87363450  0.02053287  0.61394480  1 -0.515235
  O  O136  1  0.49186118  0.02048216  0.87358870  1 -0.514857
  O  O137  1  0.61409751  0.87353124  0.02049444  1 -0.515146
  O  O138  1  0.02053709  0.49186138  0.61394773  1 -0.515676
  O  O139  1  0.87362993  0.61395481  0.49187703  1 -0.51567
  O  O140  1  0.49188232  0.87363110  0.61394616  1 -0.508256
  O  O141  1  0.61394655  0.02053710  0.49187658  1 -0.509439
  O  O142  1  0.02054673  0.61395432  0.87363504  1 -0.515143
  O  O143  1  0.87362701  0.49189102  0.02053016  1 -0.514795
  O  O144  1  0.38603613  0.50809789  0.97946960  1 -0.515079
  O  O145  1  0.50808624  0.38604377  0.12640720  1 -0.515184
  O  O146  1  0.12635647  0.97947233  0.50811508  1 -0.515257
  O  O147  1  0.97946882  0.12634416  0.38606133  1 -0.515155
  O  O148  1  0.97946181  0.50814173  0.12635486  1 -0.515086
  O  O149  1  0.12637382  0.38605468  0.97946301  1 -0.514886
  O  O150  1  0.50812704  0.97946196  0.38605007  1 -0.509474
  O  O151  1  0.38605973  0.12635591  0.50811785  1 -0.508134
  O  O152  1  0.12637608  0.50812184  0.38603925  1 -0.515612
  O  O153  1  0.97946292  0.38605201  0.50812919  1 -0.515779
  O  O154  1  0.38593499  0.97951271  0.12641947  1 -0.514837
  O  O155  1  0.50812935  0.12646809  0.97950311  1 -0.515116
