# generated using pymatgen
data_Ag4H36C18SN13O7
_symmetry_space_group_name_H-M   'P 1'
_cell_length_a   6.94224400
_cell_length_b   28.12975000
_cell_length_c   16.08502600
_cell_angle_alpha   90.00000000
_cell_angle_beta   90.00000000
_cell_angle_gamma   90.00000000
_symmetry_Int_Tables_number   1
_chemical_formula_structural   Ag4H36C18SN13O7
_chemical_formula_sum   'Ag16 H144 C72 S4 N52 O28'
_cell_volume   3141.14159291
_cell_formula_units_Z   4
loop_
 _symmetry_equiv_pos_site_id
 _symmetry_equiv_pos_as_xyz
  1  'x, y, z'
loop_
 _atom_site_type_symbol
 _atom_site_label
 _atom_site_symmetry_multiplicity
 _atom_site_fract_x
 _atom_site_fract_y
 _atom_site_fract_z
 _atom_site_occupancy
 _atom_site_charge
  Ag  Ag0  1  0.75092636  0.96783296  0.79940953  1 0.260934
  Ag  Ag1  1  0.25041214  0.53165661  0.30560841  1 0.260934
  Ag  Ag2  1  0.24988921  0.03063307  0.20221102  1 0.260934
  Ag  Ag3  1  0.73289376  0.45774799  0.08050362  1 0.260934
  Ag  Ag4  1  0.24537760  0.82362895  0.59281432  1 0.286138
  Ag  Ag5  1  0.25368061  0.83442639  0.98676528  1 0.341253
  Ag  Ag6  1  0.75137079  0.67294435  0.09529524  1 0.286138
  Ag  Ag7  1  0.74106302  0.65705983  0.49141351  1 0.341253
  Ag  Ag8  1  0.74324413  0.18366984  0.39922577  1 0.286138
  Ag  Ag9  1  0.75209268  0.16078236  0.01179242  1 0.341253
  Ag  Ag10  1  0.24521231  0.32047709  0.89146214  1 0.286138
  Ag  Ag11  1  0.23079912  0.35025991  0.51192903  1 0.341253
  Ag  Ag12  1  0.74946771  0.85286801  0.28843222  1 0.281607
  Ag  Ag13  1  0.24957542  0.63658430  0.78761637  1 0.281607
  Ag  Ag14  1  0.25093675  0.14775215  0.70685942  1 0.281607
  Ag  Ag15  1  0.74517218  0.37843720  0.18115241  1 0.281607
  H  H16  1  0.94967052  0.87788938  0.86265595  1 0.108174
  H  H17  1  0.07763732  0.92451342  0.91565120  1 0.086751
  H  H18  1  0.11992201  0.81705272  0.78942228  1 0.109477
  H  H19  1  0.07009671  0.91989243  0.65580703  1 0.020682
  H  H20  1  0.94908046  0.87499339  0.71697109  1 0.102128
  H  H21  1  0.57259729  0.74117981  0.60097122  1 0.091492
  H  H22  1  0.44354237  0.74331996  0.50255207  1 0.103407
  H  H23  1  0.87298230  0.74703980  0.37282118  1 0.108107
  H  H24  1  0.44655599  0.81312206  0.42340468  1 0.09531
  H  H25  1  0.56997804  0.86580578  0.45981439  1 0.024053
  H  H26  1  0.37772022  0.93706654  0.07522868  1 0.101746
  H  H27  1  0.54996126  0.94056235  0.20132529  1 0.085965
  H  H28  1  0.42578151  0.94394039  0.29949086  1 0.021248
  H  H29  1  0.42234041  0.81726910  0.16451115  1 0.095802
  H  H30  1  0.55257512  0.86801767  0.12357645  1 0.078861
  H  H31  1  0.05056102  0.62050380  0.36352449  1 0.108174
  H  H32  1  0.92891139  0.57266245  0.41603745  1 0.086751
  H  H33  1  0.86804439  0.68065030  0.29036440  1 0.109478
  H  H34  1  0.93800779  0.57807292  0.15638135  1 0.020682
  H  H35  1  0.05147786  0.62409671  0.21863993  1 0.102128
  H  H36  1  0.42680682  0.75185047  0.09609960  1 0.091503
  H  H37  1  0.55521921  0.74847360  0.99715508  1 0.10341
  H  H38  1  0.12496239  0.74338496  0.86840846  1 0.108108
  H  H39  1  0.55201859  0.67783923  0.92106422  1 0.09531
  H  H40  1  0.42798025  0.62567782  0.95972036  1 0.024053
  H  H41  1  0.61633211  0.55678982  0.57673269  1 0.101746
  H  H42  1  0.45081718  0.55136351  0.70322984  1 0.085965
  H  H43  1  0.57945480  0.54529980  0.79959760  1 0.021248
  H  H44  1  0.58139564  0.67531305  0.67287643  1 0.095812
  H  H45  1  0.44709429  0.62576054  0.63037063  1 0.078863
  H  H46  1  0.44877783  0.11967286  0.13803936  1 0.108174
  H  H47  1  0.57700494  0.07163415  0.08839805  1 0.086751
  H  H48  1  0.61942601  0.18235760  0.20650564  1 0.109477
  H  H49  1  0.56808133  0.08274587  0.34769414  1 0.020645
  H  H50  1  0.44779035  0.12623047  0.28267233  1 0.102127
  H  H51  1  0.07000839  0.26545967  0.40257965  1 0.091492
  H  H52  1  0.94122914  0.26092029  0.50082772  1 0.103407
  H  H53  1  0.37134372  0.25444217  0.62968824  1 0.108107
  H  H54  1  0.94509962  0.18942336  0.57473607  1 0.09531
  H  H55  1  0.06954519  0.13755731  0.53432324  1 0.024053
  H  H56  1  0.87906783  0.06041758  0.92116012  1 0.101746
  H  H57  1  0.05081890  0.05666797  0.79529945  1 0.085963
  H  H58  1  0.92705191  0.05293451  0.69706549  1 0.021211
  H  H59  1  0.92204437  0.17991496  0.83074330  1 0.095802
  H  H60  1  0.05298204  0.12940741  0.87244686  1 0.078861
  H  H61  1  0.54257647  0.38873561  0.63565875  1 0.108174
  H  H62  1  0.42857193  0.44047704  0.59370060  1 0.086751
  H  H63  1  0.35307893  0.32614519  0.69683941  1 0.109478
  H  H64  1  0.43716660  0.41792461  0.85005514  1 0.020645
  H  H65  1  0.54346792  0.37553477  0.77918786  1 0.102127
  H  H66  1  0.91637108  0.24067260  0.89678390  1 0.091503
  H  H67  1  0.04766878  0.24622407  0.99445710  1 0.10341
  H  H68  1  0.62137217  0.25470617  0.12551716  1 0.108108
  H  H69  1  0.04466817  0.31929408  0.06566312  1 0.09531
  H  H70  1  0.91863635  0.37021344  0.02333703  1 0.024053
  H  H71  1  0.11037371  0.43902788  0.41709639  1 0.101746
  H  H72  1  0.94457754  0.44550115  0.28857469  1 0.085963
  H  H73  1  0.07456437  0.45115093  0.19262934  1 0.021211
  H  H74  1  0.07175743  0.32153598  0.31851738  1 0.095812
  H  H75  1  0.93890238  0.37123162  0.36145333  1 0.078863
  H  H76  1  0.05284182  0.11999779  0.13963937  1 0.108176
  H  H77  1  0.92682809  0.07184714  0.08926543  1 0.086754
  H  H78  1  0.87928423  0.18251712  0.20723452  1 0.109476
  H  H79  1  0.92844752  0.08291934  0.34862388  1 0.020426
  H  H80  1  0.04981608  0.12649666  0.28425218  1 0.102117
  H  H81  1  0.41707365  0.26680473  0.40345297  1 0.091494
  H  H82  1  0.54385355  0.26299479  0.50213438  1 0.103427
  H  H83  1  0.11182894  0.25362022  0.62899262  1 0.108108
  H  H84  1  0.54673556  0.19144350  0.57582366  1 0.095313
  H  H85  1  0.42846177  0.13879456  0.53486375  1 0.023887
  H  H86  1  0.62115235  0.06059018  0.92125330  1 0.101746
  H  H87  1  0.44874292  0.05708189  0.79578697  1 0.085978
  H  H88  1  0.57158988  0.05318673  0.69735033  1 0.021138
  H  H89  1  0.58046931  0.18020818  0.83098666  1 0.095804
  H  H90  1  0.44880974  0.13000693  0.87286088  1 0.07889
  H  H91  1  0.93703517  0.39972011  0.64067502  1 0.108176
  H  H92  1  0.07681000  0.44683015  0.59698747  1 0.086754
  H  H93  1  0.09245589  0.33097832  0.69881289  1 0.109478
  H  H94  1  0.08064473  0.42439472  0.85372319  1 0.020426
  H  H95  1  0.94251911  0.38644229  0.78598847  1 0.102117
  H  H96  1  0.57211006  0.23926492  0.89874537  1 0.091504
  H  H97  1  0.44550828  0.24408567  0.99757452  1 0.10343
  H  H98  1  0.88110481  0.25570241  0.12299409  1 0.108109
  H  H99  1  0.44428911  0.31639273  0.06879466  1 0.095313
  H  H100  1  0.56006450  0.36869136  0.02571883  1 0.023887
  H  H101  1  0.36802981  0.43901968  0.41946851  1 0.101746
  H  H102  1  0.54571809  0.44542222  0.29402401  1 0.085978
  H  H103  1  0.42509410  0.45114609  0.19577487  1 0.021138
  H  H104  1  0.41477026  0.32149790  0.32124187  1 0.095814
  H  H105  1  0.54440977  0.37096681  0.36654776  1 0.078892
  H  H106  1  0.55384509  0.87755992  0.86106425  1 0.108176
  H  H107  1  0.42814353  0.92427578  0.91479843  1 0.086754
  H  H108  1  0.37992887  0.81670521  0.78874402  1 0.109476
  H  H109  1  0.42872535  0.91970445  0.65492172  1 0.02039
  H  H110  1  0.55064920  0.87473838  0.71547643  1 0.102115
  H  H111  1  0.91955341  0.74022050  0.60016159  1 0.091494
  H  H112  1  0.04638260  0.74173468  0.50118502  1 0.103427
  H  H113  1  0.61282003  0.74778625  0.37403485  1 0.108108
  H  H114  1  0.04757517  0.81134136  0.42204462  1 0.095313
  H  H115  1  0.92992451  0.86477797  0.45887708  1 0.023887
  H  H116  1  0.11995037  0.93673121  0.07527213  1 0.101746
  H  H117  1  0.94764219  0.93983765  0.20112824  1 0.085977
  H  H118  1  0.07136843  0.94348464  0.29937087  1 0.021102
  H  H119  1  0.07968713  0.81683167  0.16418064  1 0.095804
  H  H120  1  0.94813363  0.86720716  0.12338451  1 0.07889
  H  H121  1  0.44746826  0.61508609  0.36222642  1 0.108176
  H  H122  1  0.58154920  0.56916638  0.41440102  1 0.086754
  H  H123  1  0.60838584  0.67701476  0.29011249  1 0.109477
  H  H124  1  0.58194477  0.57437917  0.15495410  1 0.02039
  H  H125  1  0.45062899  0.61847409  0.21479630  1 0.102115
  H  H126  1  0.08066586  0.75265685  0.09592072  1 0.091504
  H  H127  1  0.95256369  0.75007246  0.99719769  1 0.10343
  H  H128  1  0.38434191  0.74281050  0.86877359  1 0.108109
  H  H129  1  0.95085376  0.67982396  0.92081029  1 0.095313
  H  H130  1  0.06808465  0.62665406  0.95895884  1 0.023887
  H  H131  1  0.87355375  0.55633977  0.57484775  1 0.101746
  H  H132  1  0.04839607  0.54962176  0.69882398  1 0.085977
  H  H133  1  0.92741950  0.54426440  0.79700360  1 0.021102
  H  H134  1  0.92320995  0.67452407  0.67036987  1 0.095814
  H  H135  1  0.05095319  0.62460325  0.62571452  1 0.078892
  H  H136  1  0.25214745  0.98322251  0.83838253  1 0.102683
  H  H137  1  0.25076780  0.98131676  0.72662018  1 0.048231
  H  H138  1  0.25190773  0.82169181  0.29074462  1 0.101932
  H  H139  1  0.24973950  0.87635069  0.34890198  1 0.063087
  H  H140  1  0.76329968  0.51175692  0.33696134  1 0.102683
  H  H141  1  0.76533380  0.51485136  0.22536411  1 0.048231
  H  H142  1  0.75798748  0.66768729  0.79815598  1 0.101932
  H  H143  1  0.75763841  0.61186046  0.85295874  1 0.063087
  H  H144  1  0.75111666  0.01509729  0.16993487  1 0.102683
  H  H145  1  0.74964322  0.01939850  0.28151834  1 0.048231
  H  H146  1  0.75159741  0.17496492  0.70463606  1 0.101932
  H  H147  1  0.74984533  0.12014644  0.64710273  1 0.063087
  H  H148  1  0.27079659  0.49495759  0.68218180  1 0.102683
  H  H149  1  0.27449920  0.48693418  0.79317788  1 0.048231
  H  H150  1  0.24923782  0.32894839  0.19478696  1 0.101932
  H  H151  1  0.25198378  0.38490098  0.13986663  1 0.063087
  H  H152  1  0.75111827  0.86206618  0.58677561  1 0.065984
  H  H153  1  0.74940999  0.80889832  0.64884093  1 0.100807
  H  H154  1  0.24873224  0.63077744  0.08657977  1 0.065984
  H  H155  1  0.25079236  0.68443101  0.14693171  1 0.100807
  H  H156  1  0.25016611  0.14459686  0.40712856  1 0.065984
  H  H157  1  0.24684822  0.19943446  0.34966024  1 0.100807
  H  H158  1  0.73747918  0.36200288  0.90042578  1 0.065984
  H  H159  1  0.73933254  0.30817747  0.84106561  1 0.100807
  C  C160  1  0.07717605  0.90088307  0.86141425  1 -0.025357
  C  C161  1  0.07481358  0.89851815  0.71308076  1 -0.009794
  C  C162  1  0.57169091  0.75493492  0.53700500  1 -0.030653
  C  C163  1  0.57306649  0.82670998  0.45683511  1 -0.015977
  C  C164  1  0.42338074  0.92877770  0.23644727  1 -0.010542
  C  C165  1  0.42445822  0.85615957  0.15783175  1 -0.023461
  C  C166  1  0.92632666  0.59644818  0.36204761  1 -0.025357
  C  C167  1  0.92990124  0.59929148  0.21376325  1 -0.009794
  C  C168  1  0.42749985  0.73747736  0.03256770  1 -0.030656
  C  C169  1  0.42578854  0.66469614  0.95517237  1 -0.015977
  C  C170  1  0.57978920  0.56177157  0.73764864  1 -0.010542
  C  C171  1  0.57729543  0.63657024  0.66418176  1 -0.023464
  C  C172  1  0.57625384  0.09664438  0.14072808  1 -0.025357
  C  C173  1  0.57328179  0.10272471  0.28890023  1 -0.009783
  C  C174  1  0.06945471  0.25029028  0.46544985  1 -0.030653
  C  C175  1  0.07139870  0.17656806  0.54016682  1 -0.015977
  C  C176  1  0.92456318  0.06838739  0.75990608  1 -0.010531
  C  C177  1  0.92479167  0.14108932  0.83809045  1 -0.023461
  C  C178  1  0.42216691  0.41355612  0.64297367  1 -0.025357
  C  C179  1  0.42554620  0.40094012  0.78853900  1 -0.009783
  C  C180  1  0.91902244  0.25661984  0.95909971  1 -0.030656
  C  C181  1  0.91783667  0.33128915  0.03072581  1 -0.015977
  C  C182  1  0.07365357  0.43472267  0.25457299  1 -0.010531
  C  C183  1  0.06862937  0.36025617  0.32767354  1 -0.023464
  C  C184  1  0.92564844  0.09683415  0.14162095  1 -0.025363
  C  C185  1  0.92452181  0.10288752  0.28980238  1 -0.009714
  C  C186  1  0.41761124  0.25155499  0.46622881  1 -0.030662
  C  C187  1  0.42236156  0.17777337  0.54083971  1 -0.015927
  C  C188  1  0.57499895  0.06860839  0.76020235  1 -0.010513
  C  C189  1  0.57716174  0.14138291  0.83828812  1 -0.023469
  C  C190  1  0.07130476  0.41984009  0.64618504  1 -0.025363
  C  C191  1  0.07525515  0.40723149  0.79222841  1 -0.009714
  C  C192  1  0.57112583  0.25530645  0.96095786  1 -0.030665
  C  C193  1  0.56715799  0.32978258  0.03275662  1 -0.015927
  C  C194  1  0.41992726  0.43466952  0.25767391  1 -0.010513
  C  C195  1  0.41751652  0.36018736  0.33061073  1 -0.023472
  C  C196  1  0.42660910  0.90067791  0.86052904  1 -0.025364
  C  C197  1  0.42510590  0.89835068  0.71223312  1 -0.009704
  C  C198  1  0.92003785  0.75398237  0.53620260  1 -0.030662
  C  C199  1  0.92310363  0.82570867  0.45595802  1 -0.015927
  C  C200  1  0.07462753  0.92836207  0.23630818  1 -0.010502
  C  C201  1  0.07667715  0.85572191  0.15774498  1 -0.02347
  C  C202  1  0.57818329  0.59324253  0.36079064  1 -0.025364
  C  C203  1  0.57948863  0.59593683  0.21206319  1 -0.009704
  C  C204  1  0.07934903  0.73828613  0.03244501  1 -0.030665
  C  C205  1  0.07523839  0.66566524  0.95489487  1 -0.015927
  C  C206  1  0.92331621  0.56077986  0.73513181  1 -0.010502
  C  C207  1  0.92425210  0.63580462  0.66143613  1 -0.023473
  C  C208  1  0.25036850  0.83904619  0.78892552  1 -0.015291
  C  C209  1  0.25132225  0.95978897  0.78378123  1 0.008729
  C  C210  1  0.24912450  0.92474883  0.10808529  1 0.000414
  C  C211  1  0.25026368  0.86060441  0.28624767  1 0.012104
  C  C212  1  0.74313406  0.65674738  0.29016231  1 -0.015292
  C  C213  1  0.76148598  0.53591289  0.28323344  1 0.008729
  C  C214  1  0.74651762  0.56796444  0.60965348  1 0.000414
  C  C215  1  0.75592950  0.62885168  0.79128189  1 0.012104
  C  C216  1  0.74954219  0.16023527  0.20843760  1 -0.015291
  C  C217  1  0.75026763  0.03965919  0.22294804  1 0.008729
  C  C218  1  0.75018551  0.07264082  0.88837769  1 0.000414
  C  C219  1  0.75035707  0.13613556  0.70950425  1 0.012104
  C  C220  1  0.22960769  0.35027710  0.70269467  1 -0.015292
  C  C221  1  0.26641689  0.46872289  0.73261767  1 0.008729
  C  C222  1  0.24078239  0.42771029  0.38458846  1 0.000414
  C  C223  1  0.24892387  0.36782811  0.20143673  1 0.012104
  C  C224  1  0.74421369  0.75860538  0.40668244  1 -0.017242
  C  C225  1  0.74929080  0.82293782  0.58514603  1 0.010427
  C  C226  1  0.25399430  0.73228729  0.90255626  1 -0.017242
  C  C227  1  0.25042222  0.66985432  0.08366272  1 0.010427
  C  C228  1  0.24254981  0.24384233  0.59493722  1 -0.017242
  C  C229  1  0.24770642  0.18360080  0.41192338  1 0.010427
  C  C230  1  0.74886545  0.26533665  0.08974402  1 -0.017242
  C  C231  1  0.73991556  0.32300363  0.90400730  1 0.010427
  S  S232  1  0.75256557  0.76400295  0.79637819  1 1.386991
  S  S233  1  0.24628268  0.72858710  0.29030448  1 1.386991
  S  S234  1  0.24860064  0.22875856  0.19846318  1 1.386991
  S  S235  1  0.74446787  0.26440193  0.70286877  1 1.386991
  N  N236  1  0.07377282  0.93036457  0.78555818  1 -0.153497
  N  N237  1  0.57101487  0.80741200  0.54176744  1 -0.150033
  N  N238  1  0.42655599  0.87664501  0.24212230  1 -0.151606
  N  N239  1  0.93489596  0.56712749  0.28596575  1 -0.153497
  N  N240  1  0.42840651  0.68500603  0.03946503  1 -0.150032
  N  N241  1  0.57589831  0.61444895  0.74768142  1 -0.151606
  N  N242  1  0.57264793  0.06899101  0.21885745  1 -0.153498
  N  N243  1  0.06869594  0.19784152  0.45653527  1 -0.150033
  N  N244  1  0.92745265  0.12042420  0.75377895  1 -0.151608
  N  N245  1  0.43350669  0.43702166  0.72390168  1 -0.153498
  N  N246  1  0.91999301  0.30871041  0.94806202  1 -0.150032
  N  N247  1  0.07112481  0.38280470  0.24502258  1 -0.151607
  N  N248  1  0.92753344  0.06916139  0.21974731  1 -0.153506
  N  N249  1  0.42454754  0.19909401  0.45711638  1 -0.150035
  N  N250  1  0.57312128  0.12069815  0.75402086  1 -0.151606
  N  N251  1  0.08195636  0.44323181  0.72730141  1 -0.153506
  N  N252  1  0.56329717  0.30740225  0.94974046  1 -0.150035
  N  N253  1  0.42296429  0.38274990  0.24800084  1 -0.151606
  N  N254  1  0.42848312  0.93019223  0.78470737  1 -0.153507
  N  N255  1  0.92544589  0.80646684  0.54101309  1 -0.150035
  N  N256  1  0.07340881  0.87618092  0.24200839  1 -0.151607
  N  N257  1  0.58041693  0.56412462  0.28456930  1 -0.153507
  N  N258  1  0.07377551  0.68582821  0.03931774  1 -0.150035
  N  N259  1  0.93169134  0.61358440  0.74498155  1 -0.151607
  N  N260  1  0.74972765  0.93858940  0.01868429  1 0.714813
  N  N261  1  0.25270696  0.56876844  0.51594214  1 0.714813
  N  N262  1  0.24993216  0.06066363  0.98281765  1 0.714812
  N  N263  1  0.74722299  0.43206120  0.46949331  1 0.714812
  N  N264  1  0.25170620  0.87064099  0.86321659  1 -0.131763
  N  N265  1  0.24974790  0.86859757  0.71254671  1 -0.124695
  N  N266  1  0.25029737  0.87180228  0.11187099  1 -0.144743
  N  N267  1  0.24871356  0.94550117  0.19286767  1 -0.12902
  N  N268  1  0.74770738  0.62501058  0.36408143  1 -0.131762
  N  N269  1  0.75006742  0.62754362  0.21316786  1 -0.124694
  N  N270  1  0.74827092  0.62134076  0.61580187  1 -0.144742
  N  N271  1  0.74909751  0.54670854  0.69207735  1 -0.12902
  N  N272  1  0.75080544  0.12673768  0.13675812  1 -0.131763
  N  N273  1  0.74870560  0.13263601  0.28736926  1 -0.124695
  N  N274  1  0.75089148  0.12544759  0.88422608  1 -0.144743
  N  N275  1  0.74974441  0.05177296  0.80364702  1 -0.12902
  N  N276  1  0.23728082  0.38624663  0.63469428  1 -0.131762
  N  N277  1  0.24105540  0.37359518  0.78548543  1 -0.124694
  N  N278  1  0.24090198  0.37495046  0.37678698  1 -0.144742
  N  N279  1  0.24475793  0.45052331  0.30168262  1 -0.12902
  N  N280  1  0.74455747  0.73815242  0.49205064  1 -0.136969
  N  N281  1  0.74682941  0.81126019  0.41170900  1 -0.119791
  N  N282  1  0.25414635  0.75372979  0.98731985  1 -0.136968
  N  N283  1  0.25143450  0.67959400  0.90964322  1 -0.119791
  N  N284  1  0.24207825  0.26620971  0.51122564  1 -0.136969
  N  N285  1  0.24566840  0.19110529  0.58620241  1 -0.119791
  N  N286  1  0.74730474  0.24137506  0.00654867  1 -0.136968
  N  N287  1  0.74480861  0.31741576  0.07781172  1 -0.119791
  O  O288  1  0.74946291  0.96842186  0.95900027  1 -0.4642
  O  O289  1  0.74897699  0.95404378  0.09319954  1 -0.500311
  O  O290  1  0.75070836  0.89427187  0.00494909  1 -0.47094
  O  O291  1  0.24772442  0.53594057  0.46117221  1 -0.4642
  O  O292  1  0.25028943  0.55720150  0.59235670  1 -0.500311
  O  O293  1  0.25955197  0.61214387  0.49548034  1 -0.47094
  O  O294  1  0.24962919  0.03026572  0.04166054  1 -0.464199
  O  O295  1  0.25041880  0.04582135  0.90787322  1 -0.500311
  O  O296  1  0.24973761  0.10476535  0.99757731  1 -0.47094
  O  O297  1  0.73849738  0.46587657  0.52058468  1 -0.464199
  O  O298  1  0.74830861  0.44081173  0.39095531  1 -0.500311
  O  O299  1  0.75505806  0.38900101  0.49318955  1 -0.47094
  O  O300  1  0.92808977  0.74631497  0.75158757  1 -0.714731
  O  O301  1  0.57459091  0.74805698  0.75143389  1 -0.714731
  O  O302  1  0.75667058  0.81725380  0.79991717  1 -0.70758
  O  O303  1  0.75088618  0.74379193  0.88306978  1 -0.718312
  O  O304  1  0.06060617  0.74196340  0.24854788  1 -0.714731
  O  O305  1  0.41271793  0.74910146  0.24262790  1 -0.714731
  O  O306  1  0.26412246  0.67542172  0.29197855  1 -0.70758
  O  O307  1  0.24807268  0.74801483  0.37721350  1 -0.718311
  O  O308  1  0.42749863  0.24611264  0.24097277  1 -0.714731
  O  O309  1  0.07453069  0.24475691  0.24608514  1 -0.714731
  O  O310  1  0.25155014  0.17528758  0.19585332  1 -0.70758
  O  O311  1  0.24068409  0.24836566  0.11175787  1 -0.718312
  O  O312  1  0.56204763  0.24883137  0.74521493  1 -0.714731
  O  O313  1  0.91491040  0.24423193  0.74857531  1 -0.714731
  O  O314  1  0.75605354  0.31725636  0.70176880  1 -0.70758
  O  O315  1  0.74543900  0.24526745  0.61536664  1 -0.718311
