# generated using pymatgen
data_CoH28(C5N2)4
_symmetry_space_group_name_H-M   'P 1'
_cell_length_a   21.00656800
_cell_length_b   21.00655314
_cell_length_c   19.84686614
_cell_angle_alpha   89.99996542
_cell_angle_beta   90.00002552
_cell_angle_gamma   90.00004934
_symmetry_Int_Tables_number   1
_chemical_formula_structural   CoH28(C5N2)4
_chemical_formula_sum   'Co8 H224 C160 N64'
_cell_volume   8757.93750832
_cell_formula_units_Z   8
loop_
 _symmetry_equiv_pos_site_id
 _symmetry_equiv_pos_as_xyz
  1  'x, y, z'
loop_
 _atom_site_type_symbol
 _atom_site_label
 _atom_site_symmetry_multiplicity
 _atom_site_fract_x
 _atom_site_fract_y
 _atom_site_fract_z
 _atom_site_occupancy
 _atom_site_charge
  Co  Co0  1  0.00000005  0.50000001  1.00000000  1 0.000848
  Co  Co1  1  0.49999998  -0.00000002  0.50000003  1 0.000823
  Co  Co2  1  0.49999995  0.49999999  0.50000004  1 0.000909
  Co  Co3  1  0.00000005  0.99999997  0.99999997  1 0.000892
  Co  Co4  1  0.24999998  0.25000014  0.24999986  1 0.001001
  Co  Co5  1  0.75000003  0.74999997  0.74999996  1 0.000846
  Co  Co6  1  0.25000001  0.74999996  0.75000000  1 0.00086
  Co  Co7  1  0.75000013  0.24999997  0.25000009  1 0.000866
  H  H8  1  0.99880529  0.55712908  0.14065241  1 0.150783
  H  H9  1  0.01673908  0.37376543  0.92826703  1 0.159412
  H  H10  1  0.95434785  0.57291709  0.25863490  1 0.088369
  H  H11  1  0.89097231  0.52058913  0.28145465  1 0.139671
  H  H12  1  0.97057700  0.50099065  0.30252652  1 0.126319
  H  H13  1  0.91906580  0.38170757  0.01340123  1 0.083995
  H  H14  1  0.97884220  0.33935020  0.05805714  1 0.134113
  H  H15  1  0.89876011  0.33412871  0.08531598  1 0.13172
  H  H16  1  0.11618400  0.51311325  0.08051787  1 0.079125
  H  H17  1  0.17585270  0.45809865  0.10909560  1 0.135094
  H  H18  1  0.09900841  0.45823252  0.14597534  1 0.129169
  H  H19  1  0.06303325  0.26591269  0.90367066  1 0.056085
  H  H20  1  0.10311061  0.23158917  0.97399581  1 0.137076
  H  H21  1  0.14703701  0.27012228  0.90965175  1 0.118009
  H  H22  1  0.49880529  0.05712900  0.64065247  1 0.150764
  H  H23  1  0.51673893  0.87376543  0.42826690  1 0.159407
  H  H24  1  0.45434790  0.07291710  0.75863491  1 0.088375
  H  H25  1  0.39097231  0.02058911  0.78145469  1 0.139705
  H  H26  1  0.47057712  0.00099059  0.80252666  1 0.126349
  H  H27  1  0.41906578  0.88170760  0.51340111  1 0.084002
  H  H28  1  0.47884222  0.83935017  0.55805714  1 0.134109
  H  H29  1  0.39876009  0.83412867  0.58531600  1 0.13172
  H  H30  1  0.61618402  0.01311324  0.58051787  1 0.079122
  H  H31  1  0.67585269  0.95809868  0.60909561  1 0.135101
  H  H32  1  0.59900839  0.95823253  0.64597544  1 0.129173
  H  H33  1  0.56303323  0.76591277  0.40367065  1 0.056076
  H  H34  1  0.60311061  0.73158918  0.47399590  1 0.137071
  H  H35  1  0.64703707  0.77012233  0.40965169  1 0.118009
  H  H36  1  0.50119397  0.44286968  0.64065237  1 0.150712
  H  H37  1  0.48326205  0.62623465  0.42826590  1 0.159321
  H  H38  1  0.54565203  0.42708282  0.75863480  1 0.08836
  H  H39  1  0.60902775  0.47941092  0.78145470  1 0.139683
  H  H40  1  0.52942283  0.49900948  0.80252671  1 0.126328
  H  H41  1  0.58093414  0.61829246  0.51340108  1 0.083995
  H  H42  1  0.52115784  0.66064979  0.55805711  1 0.134114
  H  H43  1  0.60123987  0.66587131  0.58531600  1 0.131722
  H  H44  1  0.38381609  0.48688670  0.58051799  1 0.079126
  H  H45  1  0.32414731  0.54190137  0.60909564  1 0.135099
  H  H46  1  0.40099160  0.54176740  0.64597541  1 0.129176
  H  H47  1  0.43696682  0.73408699  0.40367064  1 0.056068
  H  H48  1  0.39688932  0.76841081  0.47399603  1 0.137067
  H  H49  1  0.35296290  0.72987767  0.40965169  1 0.118
  H  H50  1  0.00119389  0.94286966  0.14065235  1 0.150703
  H  H51  1  0.98326254  0.12623468  0.92826540  1 0.159316
  H  H52  1  0.04565205  0.92708288  0.25863484  1 0.08836
  H  H53  1  0.10902776  0.97941091  0.28145465  1 0.13969
  H  H54  1  0.02942289  0.99900936  0.30252656  1 0.126329
  H  H55  1  0.08093411  0.11829248  0.01340102  1 0.083957
  H  H56  1  0.02115790  0.16064973  0.05805708  1 0.134118
  H  H57  1  0.10123984  0.16587123  0.08531599  1 0.131781
  H  H58  1  0.88381604  0.98688676  0.08051801  1 0.079125
  H  H59  1  0.82414738  0.04190132  0.10909561  1 0.135091
  H  H60  1  0.90099155  0.04176739  0.14597532  1 0.129172
  H  H61  1  0.93696679  0.23408692  0.90367067  1 0.056084
  H  H62  1  0.89688930  0.26841074  0.97399602  1 0.137062
  H  H63  1  0.85296296  0.22987764  0.90965173  1 0.11799
  H  H64  1  0.19286644  0.24880823  0.39065149  1 0.150632
  H  H65  1  0.37623462  0.26673762  0.17826575  1 0.159423
  H  H66  1  0.17708372  0.20434771  0.50863488  1 0.08839
  H  H67  1  0.22941105  0.14097254  0.53145462  1 0.139673
  H  H68  1  0.24900961  0.22057703  0.55252669  1 0.126365
  H  H69  1  0.36829252  0.16906590  0.26340125  1 0.084014
  H  H70  1  0.41064984  0.22884215  0.30805714  1 0.134097
  H  H71  1  0.41587127  0.14876017  0.33531598  1 0.131717
  H  H72  1  0.23688686  0.36618378  0.33051822  1 0.079129
  H  H73  1  0.29190143  0.42585249  0.35909551  1 0.13504
  H  H74  1  0.29176742  0.34900835  0.39597537  1 0.129122
  H  H75  1  0.48408698  0.31303317  0.15367074  1 0.056111
  H  H76  1  0.51841070  0.35311070  0.22399596  1 0.137065
  H  H77  1  0.47987765  0.39703702  0.15965184  1 0.117964
  H  H78  1  0.69287091  0.74880531  0.89065244  1 0.150742
  H  H79  1  0.87623459  0.76673863  0.67826659  1 0.159377
  H  H80  1  0.67708287  0.70434790  0.00863491  1 0.088355
  H  H81  1  0.72941091  0.64097225  0.03145470  1 0.139666
  H  H82  1  0.74900947  0.72057716  0.05252671  1 0.126363
  H  H83  1  0.86829242  0.66906581  0.76340111  1 0.083994
  H  H84  1  0.91064982  0.72884220  0.80805713  1 0.134113
  H  H85  1  0.91587131  0.64876011  0.83531600  1 0.13172
  H  H86  1  0.73688682  0.86618403  0.83051790  1 0.079127
  H  H87  1  0.79190133  0.92585266  0.85909560  1 0.1351
  H  H88  1  0.79176747  0.84900841  0.89597541  1 0.12918
  H  H89  1  0.98408714  0.81303322  0.65367064  1 0.056084
  H  H90  1  0.01841082  0.85311066  0.72399598  1 0.137067
  H  H91  1  0.97987767  0.89703711  0.65965170  1 0.117979
  H  H92  1  0.30712981  0.75119425  0.89065240  1 0.150693
  H  H93  1  0.12376538  0.73326171  0.67826628  1 0.159358
  H  H94  1  0.32291711  0.79565207  0.00863487  1 0.088384
  H  H95  1  0.27058909  0.85902772  0.03145469  1 0.139691
  H  H96  1  0.25099055  0.77942284  0.05252670  1 0.126373
  H  H97  1  0.13170757  0.83093419  0.76340106  1 0.083993
  H  H98  1  0.08935018  0.77115781  0.80805712  1 0.134111
  H  H99  1  0.08412868  0.85123989  0.83531600  1 0.131706
  H  H100  1  0.26311330  0.63381604  0.83051794  1 0.079128
  H  H101  1  0.20809866  0.57414730  0.85909563  1 0.135099
  H  H102  1  0.20823258  0.65099160  0.89597542  1 0.129182
  H  H103  1  0.01591293  0.68696685  0.65367063  1 0.056088
  H  H104  1  0.98158917  0.64688934  0.72399603  1 0.137067
  H  H105  1  0.02012234  0.60296288  0.65965172  1 0.117976
  H  H106  1  0.80713016  0.25119382  0.39065203  1 0.150771
  H  H107  1  0.62376550  0.23326107  0.17826696  1 0.159427
  H  H108  1  0.82291679  0.29565210  0.50863490  1 0.088387
  H  H109  1  0.77058906  0.35902756  0.53145467  1 0.139669
  H  H110  1  0.75099061  0.27942295  0.55252661  1 0.126364
  H  H111  1  0.63170759  0.33093418  0.26340123  1 0.08401
  H  H112  1  0.58935020  0.27115781  0.30805716  1 0.134105
  H  H113  1  0.58412871  0.35123988  0.33531601  1 0.131706
  H  H114  1  0.76311330  0.13381607  0.33051795  1 0.079138
  H  H115  1  0.70809863  0.07414729  0.35909561  1 0.135091
  H  H116  1  0.70823254  0.15099162  0.39597542  1 0.129177
  H  H117  1  0.51591280  0.18696681  0.15367072  1 0.056104
  H  H118  1  0.48158925  0.14688939  0.22399589  1 0.137077
  H  H119  1  0.52012235  0.10296292  0.15965176  1 0.117966
  H  H120  1  0.00119469  0.44287096  0.85934753  1 0.150764
  H  H121  1  0.98326096  0.62623457  0.07173300  1 0.159406
  H  H122  1  0.04565209  0.42708288  0.74136516  1 0.088377
  H  H123  1  0.10902770  0.47941092  0.71854535  1 0.139695
  H  H124  1  0.02942285  0.49900947  0.69747335  1 0.126339
  H  H125  1  0.08093422  0.61829241  0.98659886  1 0.083997
  H  H126  1  0.02115777  0.66064984  0.94194287  1 0.134111
  H  H127  1  0.10123991  0.66587134  0.91468400  1 0.131721
  H  H128  1  0.88381597  0.48688677  0.91948212  1 0.079121
  H  H129  1  0.82414730  0.54190134  0.89090440  1 0.135098
  H  H130  1  0.90099162  0.54176749  0.85402456  1 0.129175
  H  H131  1  0.93696677  0.73408726  0.09632936  1 0.056072
  H  H132  1  0.89688938  0.76841084  0.02600411  1 0.137073
  H  H133  1  0.85296293  0.72987770  0.09034831  1 0.118003
  H  H134  1  0.50119465  0.94287087  0.35934756  1 0.150759
  H  H135  1  0.48326096  0.12623456  0.57173297  1 0.159405
  H  H136  1  0.54565213  0.92708292  0.24136510  1 0.088369
  H  H137  1  0.60902767  0.97941089  0.21854535  1 0.139677
  H  H138  1  0.52942291  0.99900941  0.19747339  1 0.126324
  H  H139  1  0.58093421  0.11829241  0.48659881  1 0.083996
  H  H140  1  0.52115780  0.16064981  0.44194284  1 0.13411
  H  H141  1  0.60123987  0.16587129  0.41468402  1 0.131718
  H  H142  1  0.38381599  0.98688674  0.41948213  1 0.079125
  H  H143  1  0.32414732  0.04190136  0.39090438  1 0.135095
  H  H144  1  0.40099158  0.04176748  0.35402459  1 0.129166
  H  H145  1  0.43696671  0.23408726  0.59632931  1 0.05609
  H  H146  1  0.39688942  0.26841079  0.52600412  1 0.137075
  H  H147  1  0.35296300  0.22987767  0.59034828  1 0.118013
  H  H148  1  0.49880597  0.55713018  0.35934762  1 0.150716
  H  H149  1  0.51673789  0.37376537  0.57173419  1 0.15933
  H  H150  1  0.45434795  0.57291713  0.24136517  1 0.088368
  H  H151  1  0.39097228  0.52058908  0.21854532  1 0.139679
  H  H152  1  0.47057714  0.50099056  0.19747335  1 0.126318
  H  H153  1  0.41906591  0.38170755  0.48659894  1 0.083997
  H  H154  1  0.47884210  0.33935025  0.44194289  1 0.134111
  H  H155  1  0.39876017  0.33412872  0.41468399  1 0.131721
  H  H156  1  0.61618397  0.51311325  0.41948200  1 0.079125
  H  H157  1  0.67585265  0.45809866  0.39090438  1 0.135088
  H  H158  1  0.59900843  0.45823259  0.35402464  1 0.129172
  H  H159  1  0.56303322  0.26591305  0.59632935  1 0.056081
  H  H160  1  0.60311069  0.23158925  0.52600398  1 0.137063
  H  H161  1  0.64703703  0.27012235  0.59034829  1 0.117986
  H  H162  1  0.99880633  0.05713081  0.85934767  1 0.150669
  H  H163  1  0.01673777  0.87376535  0.07173424  1 0.15931
  H  H164  1  0.95434798  0.07291718  0.74136526  1 0.088355
  H  H165  1  0.89097224  0.02058908  0.71854532  1 0.139693
  H  H166  1  0.97057718  0.00099050  0.69747331  1 0.126341
  H  H167  1  0.91906586  0.88170755  0.98659896  1 0.083995
  H  H168  1  0.97884213  0.83935023  0.94194290  1 0.134114
  H  H169  1  0.89876015  0.83412871  0.91468403  1 0.131722
  H  H170  1  0.11618393  0.01311333  0.91948198  1 0.079124
  H  H171  1  0.17585267  0.95809867  0.89090439  1 0.135101
  H  H172  1  0.09900841  0.95823262  0.85402463  1 0.129179
  H  H173  1  0.06303319  0.76591303  0.09632935  1 0.056074
  H  H174  1  0.10311068  0.73158921  0.02600396  1 0.137069
  H  H175  1  0.14703709  0.77012236  0.09034830  1 0.118004
  H  H176  1  0.80712949  0.75119447  0.60934759  1 0.150726
  H  H177  1  0.62376545  0.73326100  0.82173305  1 0.159393
  H  H178  1  0.82291714  0.79565209  0.49136513  1 0.088371
  H  H179  1  0.77058909  0.85902774  0.46854531  1 0.13968
  H  H180  1  0.75099053  0.77942286  0.44747330  1 0.126363
  H  H181  1  0.63170758  0.83093420  0.73659880  1 0.083995
  H  H182  1  0.58935018  0.77115780  0.69194285  1 0.134111
  H  H183  1  0.58412870  0.85123988  0.66468401  1 0.13172
  H  H184  1  0.76311325  0.63381601  0.66948210  1 0.079126
  H  H185  1  0.70809865  0.57414734  0.64090440  1 0.135098
  H  H186  1  0.70823254  0.65099160  0.60402459  1 0.129183
  H  H187  1  0.51591283  0.68696673  0.84632931  1 0.056086
  H  H188  1  0.48158919  0.64688935  0.77600405  1 0.13707
  H  H189  1  0.52012233  0.60296290  0.84034829  1 0.117975
  H  H190  1  0.30713047  0.25119374  0.10934774  1 0.15076
  H  H191  1  0.12376554  0.23326578  0.32173728  1 0.159221
  H  H192  1  0.32291702  0.29565208  0.99136518  1 0.088328
  H  H193  1  0.27058904  0.35902773  0.96854535  1 0.139657
  H  H194  1  0.25099050  0.27942287  0.94747336  1 0.126365
  H  H195  1  0.13170747  0.33093382  0.23659892  1 0.08397
  H  H196  1  0.08935022  0.27115775  0.19194289  1 0.134044
  H  H197  1  0.08412884  0.35123975  0.16468390  1 0.131766
  H  H198  1  0.26311316  0.13381600  0.16948196  1 0.079151
  H  H199  1  0.20809869  0.07414736  0.14090443  1 0.135091
  H  H200  1  0.20823258  0.15099157  0.10402455  1 0.129173
  H  H201  1  0.01591306  0.18696679  0.34632886  1 0.056178
  H  H202  1  0.98158954  0.14688921  0.27600417  1 0.137144
  H  H203  1  0.02012231  0.10296307  0.34034791  1 0.118066
  H  H204  1  0.69287090  0.24880537  0.10934762  1 0.15079
  H  H205  1  0.87623422  0.26673767  0.32173400  1 0.159354
  H  H206  1  0.67708301  0.20434786  0.99136509  1 0.088377
  H  H207  1  0.72941089  0.14097237  0.96854534  1 0.139684
  H  H208  1  0.74900941  0.22057709  0.94747337  1 0.126363
  H  H209  1  0.86829235  0.16906587  0.23659893  1 0.083996
  H  H210  1  0.91064981  0.22884225  0.19194285  1 0.134108
  H  H211  1  0.91587127  0.14876015  0.16468392  1 0.131704
  H  H212  1  0.73688674  0.36618398  0.16948213  1 0.079149
  H  H213  1  0.79190135  0.42585273  0.14090439  1 0.135087
  H  H214  1  0.79176748  0.34900838  0.10402456  1 0.129172
  H  H215  1  0.98408716  0.31303335  0.34632866  1 0.056132
  H  H216  1  0.01841056  0.35311051  0.27600429  1 0.137086
  H  H217  1  0.97987756  0.39703702  0.34034797  1 0.117981
  H  H218  1  0.19287020  0.74880577  0.60934759  1 0.150692
  H  H219  1  0.37623461  0.76673830  0.82173373  1 0.159348
  H  H220  1  0.17708286  0.70434797  0.49136514  1 0.08838
  H  H221  1  0.22941094  0.64097231  0.46854532  1 0.139679
  H  H222  1  0.24900945  0.72057717  0.44747329  1 0.126373
  H  H223  1  0.36829243  0.66906583  0.73659895  1 0.083993
  H  H224  1  0.41064980  0.72884217  0.69194289  1 0.134113
  H  H225  1  0.41587131  0.64876012  0.66468400  1 0.131707
  H  H226  1  0.23688671  0.86618398  0.66948207  1 0.079124
  H  H227  1  0.29190134  0.92585271  0.64090438  1 0.1351
  H  H228  1  0.29176743  0.84900840  0.60402456  1 0.12918
  H  H229  1  0.48408700  0.81303321  0.84632932  1 0.05608
  H  H230  1  0.51841077  0.85311068  0.77600396  1 0.137067
  H  H231  1  0.47987763  0.89703711  0.84034829  1 0.11798
  C  C232  1  0.94384659  0.42259915  0.10870310  1 0.195439
  C  C233  1  0.92665366  0.42828440  0.17763977  1 -0.136098
  C  C234  1  0.94662284  0.48868416  0.19789545  1 0.194857
  C  C235  1  0.94046486  0.52270287  0.26342043  1 -0.406705
  C  C236  1  0.93440282  0.36652300  0.06397638  1 -0.415495
  C  C237  1  0.91687875  0.34724615  0.27309415  1 0.199752
  C  C238  1  0.89367274  0.38004470  0.21714910  1 -0.134864
  C  C239  1  0.10418678  0.41758360  0.04624299  1 0.192909
  C  C240  1  0.12494117  0.46426245  0.09822515  1 -0.415095
  C  C241  1  0.10270606  0.27221000  0.93914122  1 -0.41542
  C  C242  1  0.44384658  0.92259913  0.60870315  1 0.19544
  C  C243  1  0.42665367  0.92828444  0.67763976  1 -0.136105
  C  C244  1  0.44662266  0.98868434  0.69789562  1 0.194858
  C  C245  1  0.44046478  0.02270289  0.76342025  1 -0.406698
  C  C246  1  0.43440283  0.86652300  0.56397638  1 -0.415491
  C  C247  1  0.41687899  0.84724611  0.77309431  1 0.199749
  C  C248  1  0.39367278  0.88004470  0.71714903  1 -0.134856
  C  C249  1  0.60418688  0.91758366  0.54624300  1 0.192898
  C  C250  1  0.62494120  0.96426245  0.59822506  1 -0.415094
  C  C251  1  0.60270604  0.77220999  0.43914124  1 -0.41541
  C  C252  1  0.55615343  0.57740094  0.60870307  1 0.195406
  C  C253  1  0.57334635  0.57171565  0.67763973  1 -0.136088
  C  C254  1  0.55337721  0.51131560  0.69789515  1 0.194838
  C  C255  1  0.55953523  0.47729705  0.76342030  1 -0.406678
  C  C256  1  0.56559721  0.63347695  0.56397642  1 -0.415493
  C  C257  1  0.58312100  0.65275387  0.77309429  1 0.199773
  C  C258  1  0.60632723  0.61995536  0.71714902  1 -0.134842
  C  C259  1  0.39581304  0.58241633  0.54624309  1 0.192911
  C  C260  1  0.37505876  0.53573755  0.59822505  1 -0.415096
  C  C261  1  0.39729397  0.72779021  0.43914115  1 -0.415394
  C  C262  1  0.05615337  0.07740101  0.10870312  1 0.195428
  C  C263  1  0.07334642  0.07171563  0.17763965  1 -0.13613
  C  C264  1  0.05337718  0.01131585  0.19789513  1 0.194855
  C  C265  1  0.05953517  0.97729707  0.26342038  1 -0.406681
  C  C266  1  0.06559719  0.13347695  0.06397652  1 -0.415538
  C  C267  1  0.08312254  0.15275468  0.27309422  1 0.199801
  C  C268  1  0.10632746  0.11995499  0.21714860  1 -0.134815
  C  C269  1  0.89581306  0.08241634  0.04624311  1 0.192905
  C  C270  1  0.87505878  0.03573756  0.09822502  1 -0.415104
  C  C271  1  0.89729401  0.22779022  0.93914115  1 -0.415388
  C  C272  1  0.32740105  0.19384649  0.35870310  1 0.195438
  C  C273  1  0.32171607  0.17665361  0.42763963  1 -0.136116
  C  C274  1  0.26131561  0.19662294  0.44789366  1 0.194838
  C  C275  1  0.22729650  0.19046469  0.51342038  1 -0.406703
  C  C276  1  0.38347701  0.18440280  0.31397634  1 -0.415506
  C  C277  1  0.40275375  0.16687908  0.52309422  1 0.199772
  C  C278  1  0.36995542  0.14367290  0.46714902  1 -0.134846
  C  C279  1  0.33241636  0.35418711  0.29624292  1 0.192827
  C  C280  1  0.28573742  0.37494130  0.34822477  1 -0.414939
  C  C281  1  0.47779023  0.35270613  0.18914118  1 -0.415374
  C  C282  1  0.82740098  0.69384653  0.85870315  1 0.195408
  C  C283  1  0.82171564  0.67665367  0.92763972  1 -0.136084
  C  C284  1  0.76131563  0.69662271  0.94789548  1 0.194837
  C  C285  1  0.72729710  0.69046477  0.01342029  1 -0.40669
  C  C286  1  0.88347698  0.68440281  0.81397639  1 -0.415492
  C  C287  1  0.90275382  0.66687907  0.02309429  1 0.199766
  C  C288  1  0.86995540  0.64367278  0.96714908  1 -0.134834
  C  C289  1  0.83241635  0.85418697  0.79624310  1 0.19289
  C  C290  1  0.78573756  0.87494121  0.84822503  1 -0.415095
  C  C291  1  0.97779013  0.85270603  0.68914121  1 -0.415387
  C  C292  1  0.17259903  0.80615346  0.85870315  1 0.195423
  C  C293  1  0.17828437  0.82334635  0.92763974  1 -0.136102
  C  C294  1  0.23868434  0.80337730  0.94789540  1 0.194853
  C  C295  1  0.27270296  0.80953521  0.01342029  1 -0.406696
  C  C296  1  0.11652301  0.81559720  0.81397641  1 -0.415476
  C  C297  1  0.09724608  0.83312118  0.02309429  1 0.199801
  C  C298  1  0.13004470  0.85632720  0.96714900  1 -0.134864
  C  C299  1  0.16758364  0.64581299  0.79624316  1 0.192917
  C  C300  1  0.21426243  0.62505878  0.84822504  1 -0.415102
  C  C301  1  0.02220985  0.64729394  0.68914121  1 -0.415381
  C  C302  1  0.67259922  0.30615341  0.35870309  1 0.195425
  C  C303  1  0.67828433  0.32334637  0.42763980  1 -0.136103
  C  C304  1  0.73868427  0.30337725  0.44789501  1 0.194832
  C  C305  1  0.77270297  0.30953525  0.51342028  1 -0.406696
  C  C306  1  0.61652296  0.31559723  0.31397634  1 -0.415475
  C  C307  1  0.59724598  0.33312130  0.52309433  1 0.199797
  C  C308  1  0.63004473  0.35632720  0.46714897  1 -0.134861
  C  C309  1  0.66758367  0.14581314  0.29624299  1 0.19291
  C  C310  1  0.71426241  0.12505877  0.34822504  1 -0.415083
  C  C311  1  0.52221001  0.14729393  0.18914132  1 -0.415393
  C  C312  1  0.05615342  0.57740088  0.89129689  1 0.195444
  C  C313  1  0.07334634  0.57171560  0.82236020  1 -0.1361
  C  C314  1  0.05337731  0.51131569  0.80210450  1 0.194855
  C  C315  1  0.05953524  0.47729710  0.73657969  1 -0.406711
  C  C316  1  0.06559719  0.63347701  0.93602364  1 -0.415493
  C  C317  1  0.08312102  0.65275381  0.72690572  1 0.199754
  C  C318  1  0.10632723  0.61995529  0.78285099  1 -0.134863
  C  C319  1  0.89581314  0.58241635  0.95375701  1 0.192899
  C  C320  1  0.87505880  0.53573755  0.90177494  1 -0.415094
  C  C321  1  0.89729397  0.72779003  0.06085877  1 -0.415409
  C  C322  1  0.55615342  0.07740082  0.39129683  1 0.195418
  C  C323  1  0.57334635  0.07171560  0.32236025  1 -0.136096
  C  C324  1  0.55337728  0.01131569  0.30210449  1 0.194845
  C  C325  1  0.55953519  0.97729711  0.23657971  1 -0.406682
  C  C326  1  0.56559718  0.13347701  0.43602365  1 -0.415488
  C  C327  1  0.58312101  0.15275387  0.22690568  1 0.199745
  C  C328  1  0.60632726  0.11995539  0.28285090  1 -0.134846
  C  C329  1  0.39581315  0.08241639  0.45375702  1 0.192913
  C  C330  1  0.37505882  0.03573756  0.40177492  1 -0.415095
  C  C331  1  0.39729393  0.22779003  0.56085880  1 -0.415422
  C  C332  1  0.44384658  0.42259906  0.39129689  1 0.195408
  C  C333  1  0.42665360  0.42828433  0.32236030  1 -0.136101
  C  C334  1  0.44662277  0.48868434  0.30210495  1 0.194853
  C  C335  1  0.44046477  0.52270295  0.23657966  1 -0.406681
  C  C336  1  0.43440277  0.36652301  0.43602355  1 -0.415495
  C  C337  1  0.41687851  0.34724578  0.22690565  1 0.199786
  C  C338  1  0.39367267  0.38004469  0.28285120  1 -0.134843
  C  C339  1  0.60418692  0.41758369  0.45375694  1 0.192908
  C  C340  1  0.62494122  0.46426244  0.40177500  1 -0.415099
  C  C341  1  0.60270603  0.27220981  0.56085883  1 -0.415392
  C  C342  1  0.94384656  0.92259900  0.89129690  1 0.195402
  C  C343  1  0.92665364  0.92828435  0.82236027  1 -0.136108
  C  C344  1  0.94662278  0.98868437  0.80210496  1 0.194897
  C  C345  1  0.94046478  0.02270299  0.73657969  1 -0.406687
  C  C346  1  0.93440281  0.86652307  0.93602355  1 -0.415497
  C  C347  1  0.91687891  0.84724609  0.72690572  1 0.199758
  C  C348  1  0.89367275  0.88004465  0.78285100  1 -0.13484
  C  C349  1  0.10418698  0.91758366  0.95375685  1 0.192914
  C  C350  1  0.12494123  0.96426242  0.90177499  1 -0.415103
  C  C351  1  0.10270600  0.77220980  0.06085887  1 -0.415398
  C  C352  1  0.67259907  0.80615347  0.64129684  1 0.195407
  C  C353  1  0.67828438  0.82334632  0.57236031  1 -0.13609
  C  C354  1  0.73868436  0.80337727  0.55210462  1 0.194852
  C  C355  1  0.77270289  0.80953522  0.48657973  1 -0.406691
  C  C356  1  0.61652305  0.81559718  0.68602363  1 -0.415491
  C  C357  1  0.59724619  0.83312091  0.47690570  1 0.199755
  C  C358  1  0.63004461  0.85632722  0.53285094  1 -0.134832
  C  C359  1  0.66758363  0.64581302  0.70375690  1 0.1929
  C  C360  1  0.71426244  0.62505878  0.65177495  1 -0.415093
  C  C361  1  0.52220986  0.64729399  0.81085881  1 -0.415397
  C  C362  1  0.17259932  0.30615355  0.14129707  1 0.195423
  C  C363  1  0.17828419  0.32334625  0.07236028  1 -0.136083
  C  C364  1  0.23868448  0.30337692  0.05210536  1 0.194835
  C  C365  1  0.27270296  0.30953525  0.98657970  1 -0.406667
  C  C366  1  0.11652307  0.31559754  0.18602381  1 -0.415444
  C  C367  1  0.09724625  0.33312099  0.97690570  1 0.199771
  C  C368  1  0.13004459  0.35632714  0.03285093  1 -0.134839
  C  C369  1  0.16758346  0.14581286  0.20375676  1 0.192876
  C  C370  1  0.21426242  0.12505880  0.15177496  1 -0.415126
  C  C371  1  0.02220939  0.14729405  0.31085902  1 -0.415624
  C  C372  1  0.82740083  0.19384657  0.14129697  1 0.19543
  C  C373  1  0.82171563  0.17665367  0.07236025  1 -0.136091
  C  C374  1  0.76131564  0.19662276  0.05210466  1 0.194852
  C  C375  1  0.72729710  0.19046478  0.98657975  1 -0.406715
  C  C376  1  0.88347709  0.18440270  0.18602364  1 -0.415474
  C  C377  1  0.90275401  0.16687863  0.97690570  1 0.199786
  C  C378  1  0.86995525  0.14367279  0.03285105  1 -0.134866
  C  C379  1  0.83241636  0.35418694  0.20375696  1 0.192908
  C  C380  1  0.78573759  0.37494122  0.15177495  1 -0.415088
  C  C381  1  0.97779001  0.35270577  0.31085887  1 -0.415416
  C  C382  1  0.32740101  0.69384653  0.64129684  1 0.195424
  C  C383  1  0.32171562  0.67665366  0.57236029  1 -0.136109
  C  C384  1  0.26131571  0.69662264  0.55210461  1 0.194856
  C  C385  1  0.22729707  0.69046474  0.48657971  1 -0.406694
  C  C386  1  0.38347697  0.68440280  0.68602357  1 -0.415477
  C  C387  1  0.40275399  0.66687878  0.47690565  1 0.199807
  C  C388  1  0.36995525  0.64367279  0.53285108  1 -0.134859
  C  C389  1  0.33241635  0.85418699  0.70375690  1 0.192913
  C  C390  1  0.28573756  0.87494122  0.65177496  1 -0.415097
  C  C391  1  0.47779017  0.85270602  0.81085879  1 -0.415381
  N  N392  1  0.97215706  0.47674338  0.08745481  1 -0.11848
  N  N393  1  0.97315362  0.51582251  0.14247315  1 -0.142022
  N  N394  1  0.81931706  0.30736918  0.24822685  1 -0.118009
  N  N395  1  0.87061112  0.30519797  0.29063219  1 -0.150113
  N  N396  1  0.47215711  0.97674336  0.58745463  1 -0.118476
  N  N397  1  0.47315369  0.01582259  0.64247316  1 -0.142037
  N  N398  1  0.31931665  0.80736909  0.74822659  1 -0.118006
  N  N399  1  0.37061094  0.80519721  0.79063274  1 -0.150118
  N  N400  1  0.52784303  0.52325666  0.58745506  1 -0.118466
  N  N401  1  0.52684685  0.48417841  0.64247325  1 -0.142015
  N  N402  1  0.68068332  0.69263095  0.74822666  1 -0.117999
  N  N403  1  0.62938905  0.69480322  0.79063305  1 -0.150162
  N  N404  1  0.02784297  0.02325661  0.08745490  1 -0.118462
  N  N405  1  0.02684681  0.98417831  0.14247327  1 -0.142009
  N  N406  1  0.18068155  0.19262985  0.24822710  1 -0.117972
  N  N407  1  0.12938951  0.19479943  0.29062987  1 -0.150094
  N  N408  1  0.27325653  0.22215646  0.33745670  1 -0.118596
  N  N409  1  0.23418087  0.22315128  0.39247347  1 -0.141879
  N  N410  1  0.44263097  0.06931662  0.49822665  1 -0.118005
  N  N411  1  0.44480332  0.12061086  0.54063325  1 -0.150166
  N  N412  1  0.77325663  0.72215711  0.83745475  1 -0.118403
  N  N413  1  0.73417759  0.72315365  0.89247324  1 -0.142037
  N  N414  1  0.94263088  0.56931669  0.99822660  1 -0.117999
  N  N415  1  0.94480322  0.62061088  0.04063315  1 -0.150163
  N  N416  1  0.22674334  0.77784294  0.83745474  1 -0.118434
  N  N417  1  0.26582206  0.77684658  0.89247327  1 -0.142018
  N  N418  1  0.05736911  0.93068328  0.99822659  1 -0.118003
  N  N419  1  0.05519755  0.87938912  0.04063244  1 -0.150105
  N  N420  1  0.72674341  0.27784305  0.33745514  1 -0.118452
  N  N421  1  0.76582157  0.27684706  0.39247343  1 -0.142058
  N  N422  1  0.55736927  0.43068299  0.49822662  1 -0.118001
  N  N423  1  0.55519761  0.37938916  0.54063230  1 -0.150129
  N  N424  1  0.02784292  0.52325660  0.91254527  1 -0.118481
  N  N425  1  0.02684635  0.48417743  0.85752689  1 -0.142016
  N  N426  1  0.18068341  0.69263094  0.75177340  1 -0.118008
  N  N427  1  0.12938908  0.69480282  0.70936720  1 -0.150116
  N  N428  1  0.52784295  0.02325668  0.41254519  1 -0.118407
  N  N429  1  0.52684639  0.98417759  0.35752683  1 -0.142066
  N  N430  1  0.68068312  0.19263087  0.25177335  1 -0.118007
  N  N431  1  0.62938905  0.19480300  0.20936708  1 -0.150176
  N  N432  1  0.47215697  0.47674338  0.41254489  1 -0.11846
  N  N433  1  0.47315318  0.51582160  0.35752677  1 -0.142027
  N  N434  1  0.31931749  0.30736945  0.25177326  1 -0.118015
  N  N435  1  0.37061070  0.30519802  0.20936811  1 -0.150193
  N  N436  1  0.97215695  0.97674335  0.91254495  1 -0.118428
  N  N437  1  0.97315302  0.01582129  0.85752673  1 -0.142051
  N  N438  1  0.81931676  0.80736914  0.75177336  1 -0.118002
  N  N439  1  0.87061092  0.80519707  0.70936719  1 -0.150142
  N  N440  1  0.72674334  0.77784295  0.66254515  1 -0.118428
  N  N441  1  0.76582213  0.77684652  0.60752675  1 -0.142051
  N  N442  1  0.55736909  0.93068337  0.50177341  1 -0.118006
  N  N443  1  0.55519685  0.87938910  0.45936692  1 -0.15015
  N  N444  1  0.22674333  0.27784334  0.16254428  1 -0.118612
  N  N445  1  0.26582086  0.27684742  0.10752682  1 -0.14195
  N  N446  1  0.05736910  0.43068332  0.00177339  1 -0.118007
  N  N447  1  0.05519674  0.37938916  0.95936688  1 -0.150172
  N  N448  1  0.77325662  0.22215699  0.16254509  1 -0.118446
  N  N449  1  0.73417776  0.22315347  0.10752680  1 -0.142053
  N  N450  1  0.94263072  0.06931697  0.00177341  1 -0.118005
  N  N451  1  0.94480213  0.12061087  0.95936792  1 -0.150103
  N  N452  1  0.27325663  0.72215709  0.66254530  1 -0.118437
  N  N453  1  0.23417788  0.72315343  0.60752676  1 -0.142015
  N  N454  1  0.44263081  0.56931688  0.50177337  1 -0.118003
  N  N455  1  0.44480246  0.62061082  0.45936762  1 -0.150124
