# generated using pymatgen
data_ZnH4(CN)3
_symmetry_space_group_name_H-M   'P 1'
_cell_length_a   10.27708661
_cell_length_b   13.37227217
_cell_length_c   13.37244233
_cell_angle_alpha   81.50926667
_cell_angle_beta   67.40208741
_cell_angle_gamma   67.40414905
_symmetry_Int_Tables_number   1
_chemical_formula_structural   ZnH4(CN)3
_chemical_formula_sum   'Zn8 H32 C24 N24'
_cell_volume   1566.41501480
_cell_formula_units_Z   8
loop_
 _symmetry_equiv_pos_site_id
 _symmetry_equiv_pos_as_xyz
  1  'x, y, z'
loop_
 _atom_site_type_symbol
 _atom_site_label
 _atom_site_symmetry_multiplicity
 _atom_site_fract_x
 _atom_site_fract_y
 _atom_site_fract_z
 _atom_site_occupancy
 _atom_site_charge
  Zn  Zn0  1  0.31227998  0.53214749  0.47765801  1 0.096679
  Zn  Zn1  1  0.81020444  0.97544391  0.02232324  1 0.096583
  Zn  Zn2  1  0.78350928  0.52279050  0.02411126  1 0.096256
  Zn  Zn3  1  0.83388867  0.98417683  0.47473508  1 0.096465
  Zn  Zn4  1  0.69794213  0.47415354  0.51611090  1 0.096634
  Zn  Zn5  1  0.17720732  0.03403538  0.98599155  1 0.096668
  Zn  Zn6  1  0.20710702  0.48744485  0.96787731  1 0.096261
  Zn  Zn7  1  0.16235042  0.02088009  0.53348065  1 0.096471
  H  H8  1  0.94302091  0.46382792  0.32174404  1 0.111092
  H  H9  1  0.98718508  0.37285864  0.21861255  1 0.151457
  H  H10  1  0.97325202  0.50874738  0.18484089  1 0.140455
  H  H11  1  0.45907895  0.55850710  0.21903739  1 0.081579
  H  H12  1  0.22720473  0.02978839  0.17523369  1 0.111737
  H  H13  1  0.08473913  0.12370106  0.27872028  1 0.151529
  H  H14  1  0.16381153  0.98633053  0.31268254  1 0.140699
  H  H15  1  0.71949805  0.95532268  0.28395362  1 0.081422
  H  H16  1  0.24118378  0.67877080  -0.00287082  1 0.111765
  H  H17  1  0.21049283  0.77389267  0.89281940  1 0.151341
  H  H18  1  0.13172950  0.81893113  0.02855228  1 0.140881
  H  H19  1  0.67235475  0.78417998  0.03558536  1 0.082325
  H  H20  1  0.40437077  0.83113505  0.52805910  1 0.112172
  H  H21  1  0.36169226  0.72991200  0.62367245  1 0.151358
  H  H22  1  0.47762394  0.69283254  0.48729787  1 0.140662
  H  H23  1  0.00540631  0.72258600  0.45314983  1 0.08183
  H  H24  1  0.07550666  0.52187204  0.66623727  1 0.111074
  H  H25  1  0.01645665  0.61970596  0.76701582  1 0.151493
  H  H26  1  0.04375333  0.48253003  0.80491610  1 0.140452
  H  H27  1  0.53881001  0.46659787  0.78063055  1 0.081607
  H  H28  1  0.76880025  0.96953099  0.83047711  1 0.111741
  H  H29  1  0.91559174  0.87448839  0.72968185  1 0.151547
  H  H30  1  0.83453085  0.01035514  0.69237860  1 0.140742
  H  H31  1  0.27197974  0.04975254  0.72548202  1 0.081478
  H  H32  1  0.74616764  0.32896774  0.00259019  1 0.111764
  H  H33  1  0.77230182  0.24782513  0.11619906  1 0.151344
  H  H34  1  0.84917533  0.18618115  0.98736282  1 0.140882
  H  H35  1  0.31705019  0.22590969  0.95724000  1 0.082302
  H  H36  1  0.60098330  0.17629403  0.46568531  1 0.112176
  H  H37  1  0.65044810  0.27598300  0.37058204  1 0.151411
  H  H38  1  0.52803036  0.31481797  0.50536636  1 0.140676
  H  H39  1  0.99319146  0.28200741  0.55324714  1 0.081807
  C  C40  1  0.92456748  0.45695793  0.24770004  1 -0.448567
  C  C41  1  0.76054032  0.48867481  0.27070540  1 0.372428
  C  C42  1  0.54602405  0.53602383  0.25387064  1 0.119393
  C  C43  1  0.12807716  0.04002979  0.25019733  1 -0.448235
  C  C44  1  0.01207588  0.01509771  0.22901843  1 0.370411
  C  C45  1  0.82111407  0.97506501  0.24810152  1 0.119482
  C  C46  1  0.15813167  0.75177213  0.97724794  1 -0.449492
  C  C47  1  0.02011627  0.73009998  0.99342949  1 0.373269
  C  C48  1  0.79252269  0.74873236  0.02097970  1 0.118419
  C  C49  1  0.37910404  0.75654705  0.53922630  1 -0.449265
  C  C50  1  0.24309002  0.77760177  0.51282450  1 0.372429
  C  C51  1  0.07131478  0.75846846  0.47265702  1 0.118911
  C  C52  1  0.08739182  0.53552246  0.74091129  1 -0.448592
  C  C53  1  0.24843447  0.51365070  0.72096667  1 0.37244
  C  C54  1  0.45646215  0.48154526  0.74294992  1 0.119314
  C  C55  1  0.86921017  0.95906900  0.75647010  1 -0.448274
  C  C56  1  0.98176202  0.98752196  0.77859542  1 0.370433
  C  C57  1  0.17056061  0.02974130  0.76066415  1 0.119421
  C  C58  1  0.82663846  0.25921097  0.02887598  1 -0.449475
  C  C59  1  0.96752998  0.28003101  0.00524567  1 0.373173
  C  C60  1  0.19677060  0.26125444  0.97228949  1 0.118387
  C  C61  1  0.62769913  0.25012209  0.45562676  1 -0.449372
  C  C62  1  0.76008839  0.22821475  0.48682342  1 0.372407
  C  C63  1  0.92810136  0.24651292  0.53223589  1 0.118904
  N  N64  1  0.51932122  0.52512935  0.35977573  1 -0.132032
  N  N65  1  0.65722578  0.49445999  0.37082092  1 -0.188014
  N  N66  1  0.69390496  0.51464239  0.19509272  1 -0.304186
  N  N67  1  0.88770798  0.98666927  0.14204170  1 -0.132223
  N  N68  1  0.01030830  0.01281561  0.12966335  1 -0.187009
  N  N69  1  0.89435956  0.99158641  0.30547992  1 -0.304173
  N  N70  1  0.87193864  0.64293732  0.00886952  1 -0.132464
  N  N71  1  0.01839126  0.63078052  0.99091737  1 -0.187193
  N  N72  1  0.87943741  0.80622807  0.01250064  1 -0.305444
  N  N73  1  0.03221611  0.86454307  0.48378749  1 -0.131523
  N  N74  1  0.14236041  0.87694581  0.50985524  1 -0.188825
  N  N75  1  0.20172017  0.70108389  0.48950648  1 -0.304424
  N  N76  1  0.48782306  0.48823526  0.63634382  1 -0.131924
  N  N77  1  0.35390632  0.50918353  0.62219368  1 -0.188064
  N  N78  1  0.30948410  0.49637906  0.79891825  1 -0.304179
  N  N79  1  0.10136286  0.02035776  0.86670237  1 -0.132223
  N  N80  1  0.98007076  0.99305872  0.87840515  1 -0.187049
  N  N81  1  0.10027779  0.01049461  0.70255281  1 -0.304183
  N  N82  1  0.11959922  0.36747055  0.97735231  1 -0.132416
  N  N83  1  0.97218717  0.37966665  -0.00121202  1 -0.187101
  N  N84  1  0.10742323  0.20348886  0.98873765  1 -0.305462
  N  N85  1  0.96520417  0.14036775  0.52313047  1 -0.131473
  N  N86  1  0.85745710  0.12845871  0.49370959  1 -0.1888
  N  N87  1  0.80125374  0.30446170  0.51089657  1 -0.304386
