# generated using pymatgen
data_CuH9(C10O3)2
_symmetry_space_group_name_H-M   'P 1'
_cell_length_a   16.05785416
_cell_length_b   29.78664403
_cell_length_c   28.52518323
_cell_angle_alpha   90.00004913
_cell_angle_beta   90.00014247
_cell_angle_gamma   90.01335660
_symmetry_Int_Tables_number   1
_chemical_formula_structural   CuH9(C10O3)2
_chemical_formula_sum   'Cu8 H72 C160 O48'
_cell_volume   13643.86820944
_cell_formula_units_Z   8
loop_
 _symmetry_equiv_pos_site_id
 _symmetry_equiv_pos_as_xyz
  1  'x, y, z'
loop_
 _atom_site_type_symbol
 _atom_site_label
 _atom_site_symmetry_multiplicity
 _atom_site_fract_x
 _atom_site_fract_y
 _atom_site_fract_z
 _atom_site_occupancy
 _atom_site_charge
  Cu  Cu0  1  0.18935856  0.22513266  0.99999929  1 0.83302
  Cu  Cu1  1  0.68936501  0.72515012  0.00000173  1 0.828844
  Cu  Cu2  1  0.81063755  0.77485827  -0.00000167  1 0.818731
  Cu  Cu3  1  0.31067965  0.27489073  0.00000314  1 0.820575
  Cu  Cu4  1  0.81056023  0.22518153  0.50000272  1 0.83547
  Cu  Cu5  1  0.31062917  0.72515717  0.49999813  1 0.838616
  Cu  Cu6  1  0.18925113  0.77489319  0.50000254  1 0.839505
  Cu  Cu7  1  0.68972183  0.27471355  0.49999640  1 0.835794
  H  H8  1  0.25471910  0.12639674  0.89659511  1 0.120468
  H  H9  1  0.46257959  0.21716863  0.89324830  1 0.119246
  H  H10  1  0.31947996  0.08055903  0.83359455  1 0.119422
  H  H11  1  0.52682254  0.17257604  0.82906157  1 0.106888
  H  H12  1  0.75468639  0.62638593  0.89659631  1 0.12066
  H  H13  1  0.96258245  0.71718683  0.89325393  1 0.119245
  H  H14  1  0.81945954  0.58057733  0.83361236  1 0.119551
  H  H15  1  0.02683075  0.67257786  0.82911418  1 0.106923
  H  H16  1  0.74529516  0.87359896  0.89660357  1 0.1203
  H  H17  1  0.53738911  0.78280372  0.89323604  1 0.119636
  H  H18  1  0.68053878  0.91941706  0.83362343  1 0.119525
  H  H19  1  0.47315935  0.82741948  0.82910328  1 0.107012
  H  H20  1  0.24528361  0.37359618  0.89659378  1 0.120272
  H  H21  1  0.03741094  0.28283091  0.89324332  1 0.119574
  H  H22  1  0.18052115  0.41943627  0.83359576  1 0.119377
  H  H23  1  0.97316876  0.32742701  0.82906193  1 0.106959
  H  H24  1  0.74523071  0.12644976  0.60338591  1 0.120883
  H  H25  1  0.53740286  0.21717585  0.60676716  1 0.119717
  H  H26  1  0.68047366  0.08061951  0.66638540  1 0.118961
  H  H27  1  0.47317163  0.17254456  0.67092239  1 0.10628
  H  H28  1  0.24531168  0.62643226  0.60336431  1 0.120532
  H  H29  1  0.03747984  0.71718764  0.60671924  1 0.11923
  H  H30  1  0.18052450  0.58063994  0.66634058  1 0.118985
  H  H31  1  0.97325989  0.67258305  0.67085376  1 0.10642
  H  H32  1  0.25470058  0.87354995  0.60336104  1 0.120317
  H  H33  1  0.46254861  0.78280667  0.60672613  1 0.119165
  H  H34  1  0.31947861  0.91935069  0.66633688  1 0.118854
  H  H35  1  0.52675992  0.82741842  0.67085706  1 0.106269
  H  H36  1  0.75470159  0.37360026  0.60340890  1 0.12069
  H  H37  1  0.96249622  0.28284701  0.60674803  1 0.119779
  H  H38  1  0.81952037  0.41940579  0.66640472  1 0.119128
  H  H39  1  0.02678069  0.32745006  0.67090286  1 0.106302
  H  H40  1  0.74529394  0.87360023  0.10339711  1 0.120209
  H  H41  1  0.53738849  0.78280391  0.10676426  1 0.119617
  H  H42  1  0.68053680  0.91941766  0.16637524  1 0.119344
  H  H43  1  0.47316120  0.82741892  0.17089676  1 0.107028
  H  H44  1  0.24528156  0.37359620  0.10340689  1 0.120195
  H  H45  1  0.03741261  0.28283096  0.10675592  1 0.11938
  H  H46  1  0.18052009  0.41943500  0.16640455  1 0.119347
  H  H47  1  0.97317045  0.32742620  0.17093668  1 0.106901
  H  H48  1  0.25472113  0.12639607  0.10340523  1 0.120447
  H  H49  1  0.46258044  0.21716817  0.10675338  1 0.119326
  H  H50  1  0.31948307  0.08055969  0.16640393  1 0.119624
  H  H51  1  0.52681997  0.17257577  0.17093897  1 0.107184
  H  H52  1  0.75468773  0.62638631  0.10340318  1 0.120638
  H  H53  1  0.96258156  0.71718701  0.10674476  1 0.11922
  H  H54  1  0.81946003  0.58057867  0.16638767  1 0.119509
  H  H55  1  0.02683069  0.67257903  0.17088473  1 0.106834
  H  H56  1  0.25470188  0.87355082  0.39663863  1 0.120251
  H  H57  1  0.46254930  0.78280679  0.39327338  1 0.119213
  H  H58  1  0.31947978  0.91935084  0.33366476  1 0.118658
  H  H59  1  0.52675744  0.82741812  0.32914294  1 0.106261
  H  H60  1  0.75470393  0.37359976  0.39659039  1 0.120695
  H  H61  1  0.96249480  0.28284680  0.39325194  1 0.119715
  H  H62  1  0.81952177  0.41940432  0.33359513  1 0.119118
  H  H63  1  0.02677911  0.32744911  0.32909814  1 0.106273
  H  H64  1  0.74522970  0.12644921  0.39661207  1 0.12103
  H  H65  1  0.53740142  0.21717512  0.39323167  1 0.119766
  H  H66  1  0.68047129  0.08062001  0.33361570  1 0.119255
  H  H67  1  0.47317325  0.17254383  0.32907793  1 0.106572
  H  H68  1  0.24531135  0.62643284  0.39663634  1 0.120469
  H  H69  1  0.03748125  0.71718795  0.39328250  1 0.119138
  H  H70  1  0.18052461  0.58064134  0.33365954  1 0.118938
  H  H71  1  0.97326052  0.67258432  0.32914757  1 0.106298
  H  H72  1  0.50006569  0.15599452  0.75001355  1 0.110014
  H  H73  1  0.00000641  0.65599793  0.74999105  1 0.109836
  H  H74  1  0.49997454  0.84400280  0.74999494  1 0.109988
  H  H75  1  0.99994920  0.34400915  0.75000955  1 0.109876
  H  H76  1  0.49997452  0.84400616  0.25000524  1 0.109951
  H  H77  1  0.99994914  0.34400902  0.24999058  1 0.109904
  H  H78  1  0.50006487  0.15598902  0.24998585  1 0.110168
  H  H79  1  0.00000691  0.65600029  0.25000923  1 0.109901
  C  C80  1  0.31619220  0.20192436  0.93661755  1 0.575655
  C  C81  1  0.46522458  0.04799823  0.79092790  1 0.311414
  C  C82  1  0.46552402  0.09750302  0.78871993  1 0.007295
  C  C83  1  0.31456300  0.13599188  0.88175258  1 -0.084184
  C  C84  1  0.35475609  0.17453602  0.89863516  1 -0.015293
  C  C85  1  0.43140369  0.18757005  0.87934700  1 -0.088746
  C  C86  1  0.35077080  0.11039899  0.84658073  1 -0.107257
  C  C87  1  0.42741860  0.12342704  0.82653904  1 0.090846
  C  C88  1  0.46659469  0.16266629  0.84333245  1 -0.131104
  C  C89  1  0.81621004  0.70194437  0.93662583  1 0.574422
  C  C90  1  0.96522477  0.54802567  0.79093702  1 0.311202
  C  C91  1  0.96551962  0.59751751  0.78872016  1 0.006479
  C  C92  1  0.81453339  0.63601424  0.88175801  1 -0.083619
  C  C93  1  0.85471638  0.67456736  0.89865245  1 -0.015594
  C  C94  1  0.93138891  0.68758095  0.87936776  1 -0.088485
  C  C95  1  0.85075494  0.61041968  0.84658378  1 -0.107655
  C  C96  1  0.92741929  0.62343369  0.82654843  1 0.091056
  C  C97  1  0.96660157  0.66265848  0.84336665  1 -0.131072
  C  C98  1  0.68390306  0.79810703  0.93662707  1 0.575077
  C  C99  1  0.53478778  0.95197781  0.79092858  1 0.311158
  C  C100  1  0.53447985  0.90248395  0.78872006  1 0.006668
  C  C101  1  0.68544411  0.86398240  0.88176641  1 -0.084642
  C  C102  1  0.64525502  0.82542906  0.89865602  1 -0.015402
  C  C103  1  0.56859667  0.81241108  0.87936038  1 -0.088031
  C  C104  1  0.64922930  0.88957656  0.84659058  1 -0.107058
  C  C105  1  0.57257558  0.87656181  0.82654683  1 0.090612
  C  C106  1  0.53339063  0.83733206  0.84335802  1 -0.131075
  C  C107  1  0.18386328  0.29810063  0.93661842  1 0.575537
  C  C108  1  0.03477702  0.45199628  0.79093282  1 0.311507
  C  C109  1  0.03448454  0.40249546  0.78871495  1 0.007125
  C  C110  1  0.18542561  0.36400109  0.88175899  1 -0.084843
  C  C111  1  0.14521420  0.32545472  0.89864000  1 -0.015297
  C  C112  1  0.06857880  0.31242623  0.87933978  1 -0.088007
  C  C113  1  0.14922568  0.38959469  0.84658340  1 -0.107243
  C  C114  1  0.07257768  0.37656993  0.82653628  1 0.090749
  C  C115  1  0.03339589  0.33733394  0.84332840  1 -0.131261
  C  C116  1  0.68384924  0.20185500  0.56342417  1 0.576573
  C  C117  1  0.53476378  0.04802329  0.70907951  1 0.311652
  C  C118  1  0.53448989  0.09752417  0.71127832  1 0.008519
  C  C119  1  0.68540644  0.13604306  0.61823541  1 -0.084905
  C  C120  1  0.64523506  0.17456619  0.60135661  1 -0.012218
  C  C121  1  0.56859733  0.18757330  0.62063363  1 -0.088358
  C  C122  1  0.64920037  0.11044610  0.65340062  1 -0.107282
  C  C123  1  0.57256506  0.12344160  0.67344583  1 0.088926
  C  C124  1  0.53339095  0.16266093  0.65664068  1 -0.131147
  C  C125  1  0.18388184  0.70196358  0.56332172  1 0.576157
  C  C126  1  0.03477741  0.54803951  0.70906535  1 0.311135
  C  C127  1  0.03449438  0.59753279  0.71126266  1 0.007696
  C  C128  1  0.18548043  0.63605685  0.61818540  1 -0.084519
  C  C129  1  0.14534345  0.67459591  0.60128990  1 -0.015523
  C  C130  1  0.06870018  0.68759725  0.62058379  1 -0.088336
  C  C131  1  0.14924352  0.61047150  0.65336509  1 -0.107616
  C  C132  1  0.07260706  0.62345743  0.67342576  1 0.089702
  C  C133  1  0.03348122  0.66267991  0.65659166  1 -0.131566
  C  C134  1  0.31604175  0.79806837  0.56331955  1 0.577008
  C  C135  1  0.46522146  0.95196174  0.70907277  1 0.31095
  C  C136  1  0.46550718  0.90246717  0.71126593  1 0.007991
  C  C137  1  0.31454178  0.86392611  0.61818071  1 -0.084202
  C  C138  1  0.35470251  0.82538944  0.60128726  1 -0.015927
  C  C139  1  0.43133577  0.81239581  0.62058584  1 -0.087849
  C  C140  1  0.35076710  0.88951801  0.65336134  1 -0.107793
  C  C141  1  0.42740671  0.87653670  0.67342506  1 0.089538
  C  C142  1  0.46654297  0.83731884  0.65659383  1 -0.131335
  C  C143  1  0.81625032  0.29810865  0.56342421  1 0.576454
  C  C144  1  0.96522930  0.45197535  0.70907441  1 0.311553
  C  C145  1  0.96549889  0.40247809  0.71127555  1 0.008177
  C  C146  1  0.81454470  0.36398100  0.61823747  1 -0.084312
  C  C147  1  0.85472052  0.32545177  0.60135457  1 -0.012704
  C  C148  1  0.93134694  0.31244231  0.62064137  1 -0.088269
  C  C149  1  0.85077165  0.38957201  0.65340508  1 -0.107891
  C  C150  1  0.92741028  0.37656637  0.67345172  1 0.089563
  C  C151  1  0.96656170  0.33734265  0.65664277  1 -0.131462
  C  C152  1  0.68390005  0.79810850  0.06337215  1 0.575045
  C  C153  1  0.53478684  0.95197639  0.20906329  1 0.310608
  C  C154  1  0.53448232  0.90248309  0.21127865  1 0.003328
  C  C155  1  0.68544159  0.86398510  0.11823248  1 -0.084533
  C  C156  1  0.64525426  0.82543008  0.10134081  1 -0.01601
  C  C157  1  0.56859788  0.81240997  0.12064184  1 -0.088058
  C  C158  1  0.64922786  0.88957725  0.15340889  1 -0.108037
  C  C159  1  0.57257523  0.87656204  0.17345463  1 0.090956
  C  C160  1  0.53339215  0.83733114  0.15664252  1 -0.131556
  C  C161  1  0.18386327  0.29810027  0.06338079  1 0.575567
  C  C162  1  0.03478112  0.45199622  0.20907335  1 0.311797
  C  C163  1  0.03448445  0.40249498  0.21128591  1 0.007049
  C  C164  1  0.18542510  0.36400052  0.11824168  1 -0.084754
  C  C165  1  0.14521496  0.32545467  0.10135910  1 -0.015413
  C  C166  1  0.06857975  0.31242606  0.12065956  1 -0.088107
  C  C167  1  0.14922543  0.38959366  0.15341778  1 -0.10725
  C  C168  1  0.07257526  0.37657095  0.17346518  1 0.090751
  C  C169  1  0.03339547  0.33733403  0.15667007  1 -0.131231
  C  C170  1  0.31619260  0.20192346  0.06338364  1 0.575975
  C  C171  1  0.46522324  0.04800238  0.20906469  1 0.310904
  C  C172  1  0.46552154  0.09750444  0.21127908  1 0.003989
  C  C173  1  0.31456682  0.13599030  0.11824591  1 -0.083817
  C  C174  1  0.35475698  0.17453692  0.10136366  1 -0.016163
  C  C175  1  0.43140377  0.18757057  0.12065525  1 -0.088337
  C  C176  1  0.35077319  0.11039936  0.15341861  1 -0.107978
  C  C177  1  0.42742076  0.12342668  0.17346135  1 0.091035
  C  C178  1  0.46659389  0.16266573  0.15666799  1 -0.131528
  C  C179  1  0.81620974  0.70194439  0.06337300  1 0.574705
  C  C180  1  0.96521922  0.54802536  0.20906847  1 0.311324
  C  C181  1  0.96552025  0.59751800  0.21128087  1 0.006374
  C  C182  1  0.81453406  0.63601485  0.11824165  1 -0.083828
  C  C183  1  0.85471630  0.67456766  0.10134623  1 -0.015586
  C  C184  1  0.93138862  0.68758154  0.12063132  1 -0.08847
  C  C185  1  0.85075562  0.61042050  0.15341625  1 -0.107563
  C  C186  1  0.92742183  0.62343327  0.17345246  1 0.091022
  C  C187  1  0.96660243  0.66265905  0.15663223  1 -0.131088
  C  C188  1  0.31604540  0.79806954  0.43668219  1 0.577004
  C  C189  1  0.46522204  0.95195993  0.29093549  1 0.310632
  C  C190  1  0.46550420  0.90246625  0.28873582  1 0.004278
  C  C191  1  0.31454570  0.86392885  0.38182136  1 -0.084127
  C  C192  1  0.35470423  0.82539064  0.39871669  1 -0.016566
  C  C193  1  0.43133357  0.81239436  0.37941168  1 -0.087819
  C  C194  1  0.35076884  0.88951864  0.34663976  1 -0.108483
  C  C195  1  0.42740632  0.87653672  0.32657376  1 0.089881
  C  C196  1  0.46654021  0.83731784  0.34340536  1 -0.132036
  C  C197  1  0.81625067  0.29810790  0.43657658  1 0.576418
  C  C198  1  0.96522357  0.45197534  0.29091850  1 0.311611
  C  C199  1  0.96549883  0.40247767  0.28872337  1 0.008143
  C  C200  1  0.81454559  0.36398014  0.38176183  1 -0.084435
  C  C201  1  0.85472012  0.32545138  0.39864621  1 -0.012777
  C  C202  1  0.93134628  0.31244200  0.37935883  1 -0.08826
  C  C203  1  0.85077228  0.38957082  0.34659384  1 -0.107785
  C  C204  1  0.92741319  0.37656748  0.32654675  1 0.089427
  C  C205  1  0.96656252  0.33734275  0.34335847  1 -0.131398
  C  C206  1  0.68384635  0.20185224  0.43657682  1 0.576721
  C  C207  1  0.53476767  0.04802784  0.29092779  1 0.311304
  C  C208  1  0.53449512  0.09752573  0.28872396  1 0.005147
  C  C209  1  0.68540258  0.13604023  0.38176535  1 -0.084463
  C  C210  1  0.64523224  0.17456475  0.39864834  1 -0.013086
  C  C211  1  0.56859849  0.18757525  0.37936184  1 -0.087976
  C  C212  1  0.64919778  0.11044517  0.34660064  1 -0.108202
  C  C213  1  0.57256351  0.12344066  0.32655107  1 0.089244
  C  C214  1  0.53339411  0.16266287  0.34335708  1 -0.131465
  C  C215  1  0.18388266  0.70196384  0.43668040  1 0.576288
  C  C216  1  0.03478275  0.54803904  0.29092874  1 0.311228
  C  C217  1  0.03449379  0.59753315  0.28873652  1 0.007584
  C  C218  1  0.18548051  0.63605761  0.38181527  1 -0.084485
  C  C219  1  0.14534416  0.67459619  0.39871220  1 -0.015577
  C  C220  1  0.06870104  0.68759763  0.37941769  1 -0.088306
  C  C221  1  0.14924336  0.61047243  0.34663505  1 -0.10765
  C  C222  1  0.07260465  0.62345671  0.32657376  1 0.089714
  C  C223  1  0.03348068  0.66268027  0.34341002  1 -0.131485
  C  C224  1  0.49999009  0.02338616  0.75000335  1 -0.061752
  C  C225  1  0.50003423  0.11931455  0.75000760  1 -0.145885
  C  C226  1  0.00000857  0.52341489  0.75000512  1 -0.060049
  C  C227  1  0.00000632  0.61931841  0.74998985  1 -0.145578
  C  C228  1  0.49999744  0.97658203  0.75000502  1 -0.05954
  C  C229  1  0.49998228  0.88068131  0.74999310  1 -0.146054
  C  C230  1  0.00000857  0.47661408  0.75000360  1 -0.061343
  C  C231  1  0.99997981  0.38068868  0.75000154  1 -0.145405
  C  C232  1  0.49999712  0.97658521  0.24999524  1 -0.054543
  C  C233  1  0.49998253  0.88068335  0.25000714  1 -0.143542
  C  C234  1  0.00000796  0.47661665  0.24999605  1 -0.061503
  C  C235  1  0.99997969  0.38068739  0.24999848  1 -0.145544
  C  C236  1  0.49998970  0.02338458  0.24999682  1 -0.056001
  C  C237  1  0.50002942  0.11931150  0.24999278  1 -0.143547
  C  C238  1  0.00000817  0.52341067  0.24999463  1 -0.059707
  C  C239  1  0.00000649  0.61932073  0.25001045  1 -0.145742
  O  O240  1  0.24464319  0.18935253  0.95142583  1 -0.512342
  O  O241  1  0.35746962  0.23593287  0.95117461  1 -0.511275
  O  O242  1  0.42765985  0.02789073  0.82272111  1 -0.363641
  O  O243  1  0.74461389  0.68932926  0.95144287  1 -0.510374
  O  O244  1  0.85750650  0.73597503  0.95118251  1 -0.510263
  O  O245  1  0.92763974  0.52790411  0.82271482  1 -0.363659
  O  O246  1  0.75543194  0.81065300  0.95143101  1 -0.50509
  O  O247  1  0.64246397  0.76405582  0.95118693  1 -0.516061
  O  O248  1  0.57236515  0.97209828  0.82271241  1 -0.363873
  O  O249  1  0.25535993  0.31064255  0.95141301  1 -0.50573
  O  O250  1  0.14252401  0.26406430  0.95118209  1 -0.517775
  O  O251  1  0.07234180  0.47210944  0.82272043  1 -0.363566
  O  O252  1  0.75533892  0.18936663  0.54852274  1 -0.515968
  O  O253  1  0.64269937  0.23591224  0.54876962  1 -0.522228
  O  O254  1  0.57234067  0.02792615  0.67729036  1 -0.362824
  O  O255  1  0.25540054  0.68940548  0.54849868  1 -0.513576
  O  O256  1  0.14261478  0.73595258  0.54877740  1 -0.518713
  O  O257  1  0.07235740  0.52792778  0.67728618  1 -0.362647
  O  O258  1  0.24460338  0.81061069  0.54851677  1 -0.513901
  O  O259  1  0.35735888  0.76403889  0.54876305  1 -0.519192
  O  O260  1  0.42765373  0.97207253  0.67728648  1 -0.362793
  O  O261  1  0.74470511  0.31056208  0.54850476  1 -0.5162
  O  O262  1  0.85744553  0.26408071  0.54879578  1 -0.521636
  O  O263  1  0.92765398  0.47207968  0.67729188  1 -0.36272
  O  O264  1  0.75543616  0.81065034  0.04857364  1 -0.505202
  O  O265  1  0.64246117  0.76405624  0.04881070  1 -0.515926
  O  O266  1  0.57237412  0.97209768  0.17728584  1 -0.362392
  O  O267  1  0.25536139  0.31064156  0.04858664  1 -0.505767
  O  O268  1  0.14252441  0.26406415  0.04881747  1 -0.517762
  O  O269  1  0.07232793  0.47210736  0.17727942  1 -0.363755
  O  O270  1  0.24464049  0.18935397  0.04857509  1 -0.512629
  O  O271  1  0.35747358  0.23593124  0.04882330  1 -0.511408
  O  O272  1  0.42765047  0.02789135  0.17727866  1 -0.36152
  O  O273  1  0.74461314  0.68932924  0.04855607  1 -0.510445
  O  O274  1  0.85750494  0.73597543  0.04881700  1 -0.510328
  O  O275  1  0.92765045  0.52790611  0.17728486  1 -0.363792
  O  O276  1  0.24459845  0.81060665  0.45147776  1 -0.513913
  O  O277  1  0.35736329  0.76403982  0.45124042  1 -0.519231
  O  O278  1  0.42764492  0.97207178  0.32271559  1 -0.361331
  O  O279  1  0.74470411  0.31056106  0.45149545  1 -0.516222
  O  O280  1  0.85744421  0.26407987  0.45120440  1 -0.521487
  O  O281  1  0.92766530  0.47207791  0.32270677  1 -0.362744
  O  O282  1  0.75534854  0.18937157  0.45146909  1 -0.51576
  O  O283  1  0.64269615  0.23591148  0.45123137  1 -0.522603
  O  O284  1  0.57234657  0.02792672  0.32271133  1 -0.360798
  O  O285  1  0.25540180  0.68940574  0.45150278  1 -0.513568
  O  O286  1  0.14261640  0.73595294  0.45122405  1 -0.518745
  O  O287  1  0.07234825  0.52792921  0.32271293  1 -0.36279
