# generated using pymatgen
data_Zn3H32C52(NO6)2
_symmetry_space_group_name_H-M   'P 1'
_cell_length_a   14.14942502
_cell_length_b   18.09089777
_cell_length_c   26.05600907
_cell_angle_alpha   89.99998921
_cell_angle_beta   89.99997802
_cell_angle_gamma   90.00001914
_symmetry_Int_Tables_number   1
_chemical_formula_structural   Zn3H32C52(NO6)2
_chemical_formula_sum   'Zn12 H128 C208 N8 O48'
_cell_volume   6669.70780780
_cell_formula_units_Z   4
loop_
 _symmetry_equiv_pos_site_id
 _symmetry_equiv_pos_as_xyz
  1  'x, y, z'
loop_
 _atom_site_type_symbol
 _atom_site_label
 _atom_site_symmetry_multiplicity
 _atom_site_fract_x
 _atom_site_fract_y
 _atom_site_fract_z
 _atom_site_occupancy
 _atom_site_charge
  Zn  Zn0  1  0.52636690  0.94112820  0.64768640  1 0.840353
  Zn  Zn1  1  0.47363349  0.55887240  0.64768667  1 0.840354
  Zn  Zn2  1  0.02636713  0.55887202  0.14768622  1 0.84039
  Zn  Zn3  1  0.97363323  0.94112773  0.14768641  1 0.840371
  Zn  Zn4  1  0.49999994  0.75000011  0.64626371  1 1.076729
  Zn  Zn5  1  -0.00000034  0.74999997  0.14626379  1 1.076721
  Zn  Zn6  1  0.97363330  0.44112779  0.85231352  1 0.840377
  Zn  Zn7  1  0.02636687  0.05887180  0.85231345  1 0.840362
  Zn  Zn8  1  0.47363332  0.05887224  0.35231337  1 0.840385
  Zn  Zn9  1  0.52636658  0.44112809  0.35231345  1 0.840351
  Zn  Zn10  1  0.00000014  0.24999988  0.85373624  1 1.076715
  Zn  Zn11  1  0.49999977  0.24999997  0.35373615  1 1.076729
  H  H12  1  0.46112762  0.05822215  0.57486411  1 0.097376
  H  H13  1  0.44899305  0.19672827  0.57208747  1 0.119409
  H  H14  1  0.56024674  0.19984108  0.72670229  1 0.119604
  H  H15  1  0.56956436  0.06166047  0.72220167  1 0.101844
  H  H16  1  0.61183549  0.51413743  0.50212194  1 0.104544
  H  H17  1  0.70233666  0.51622994  0.42039262  1 0.108397
  H  H18  1  0.74994049  0.74992387  0.43955265  1 0.101078
  H  H19  1  0.65711456  0.74701427  0.52080503  1 0.116485
  H  H20  1  0.84529364  0.52583720  0.38344776  1 0.101105
  H  H21  1  0.73901557  0.74556266  0.35498981  1 0.093561
  H  H22  1  0.83960959  0.93086465  0.68674660  1 0.107214
  H  H23  1  0.00020796  0.87392602  0.69037951  1 0.095381
  H  H24  1  0.88171900  0.66747476  0.63861083  1 0.105155
  H  H25  1  0.72210153  0.72540580  0.63499892  1 0.121716
  H  H26  1  0.92876347  0.52913299  0.29930325  1 0.1018
  H  H27  1  0.82468544  0.74793369  0.27164691  1 0.112189
  H  H28  1  0.53887233  0.44177809  0.57486397  1 0.097366
  H  H29  1  0.55100729  0.30327211  0.57208747  1 0.119411
  H  H30  1  0.43975349  0.30015936  0.72670218  1 0.11962
  H  H31  1  0.43043564  0.43833997  0.72220160  1 0.101861
  H  H32  1  0.38816409  0.98586286  0.50212207  1 0.104538
  H  H33  1  0.29766343  0.98376994  0.42039250  1 0.108396
  H  H34  1  0.25005946  0.75007657  0.43955253  1 0.101086
  H  H35  1  0.34288493  0.75298577  0.52080501  1 0.11649
  H  H36  1  0.15470676  0.97416280  0.38344749  1 0.1011
  H  H37  1  0.26098471  0.75443743  0.35499012  1 0.093559
  H  H38  1  0.16039030  0.56913560  0.68674664  1 0.107191
  H  H39  1  -0.00020804  0.62607426  0.69037956  1 0.095391
  H  H40  1  0.11828103  0.83252541  0.63861080  1 0.105146
  H  H41  1  0.27789845  0.77459447  0.63499887  1 0.121706
  H  H42  1  0.07123673  0.97086676  0.29930312  1 0.101812
  H  H43  1  0.17531459  0.75206549  0.27164719  1 0.112174
  H  H44  1  0.96112784  0.44177801  0.07486406  1 0.097374
  H  H45  1  0.94899302  0.30327192  0.07208744  1 0.119411
  H  H46  1  0.06024678  0.30015920  0.22670223  1 0.119614
  H  H47  1  0.06956459  0.43833982  0.22220162  1 0.101845
  H  H48  1  0.11183573  0.98586259  0.00212211  1 0.104549
  H  H49  1  0.20233625  0.98377012  0.92039254  1 0.10836
  H  H50  1  0.24994050  0.75007638  0.93955267  1 0.101084
  H  H51  1  0.15711484  0.75298592  0.02080519  1 0.116486
  H  H52  1  0.34529364  0.97416293  0.88344756  1 0.101105
  H  H53  1  0.23901548  0.75443718  0.85499009  1 0.093555
  H  H54  1  0.33960942  0.56913548  0.18674670  1 0.107193
  H  H55  1  0.50020775  0.62607418  0.19037966  1 0.095389
  H  H56  1  0.38171907  0.83252530  0.13861073  1 0.105142
  H  H57  1  0.22210157  0.77459423  0.13499881  1 0.121702
  H  H58  1  0.42876350  0.97086688  0.79930318  1 0.101827
  H  H59  1  0.32468554  0.75206574  0.77164713  1 0.112185
  H  H60  1  0.03887242  0.05822198  0.07486410  1 0.097372
  H  H61  1  0.05100722  0.19672804  0.07208745  1 0.119409
  H  H62  1  0.93975361  0.19984087  0.22670227  1 0.119609
  H  H63  1  0.93043582  0.06166027  0.22220174  1 0.101864
  H  H64  1  0.88816395  0.51413731  0.00212206  1 0.104511
  H  H65  1  0.79766346  0.51622992  0.92039248  1 0.10838
  H  H66  1  0.75005935  0.74992360  0.93955259  1 0.101086
  H  H67  1  0.84288497  0.74701406  0.02080512  1 0.116477
  H  H68  1  0.65470662  0.52583705  0.88344774  1 0.101099
  H  H69  1  0.76098432  0.74556259  0.85498995  1 0.093565
  H  H70  1  0.66039054  0.93086458  0.18674663  1 0.107189
  H  H71  1  0.49979218  0.87392586  0.19037963  1 0.095386
  H  H72  1  0.61828098  0.66747471  0.13861070  1 0.105142
  H  H73  1  0.77789846  0.72540579  0.13499875  1 0.1217
  H  H74  1  0.57123656  0.52913273  0.79930329  1 0.101796
  H  H75  1  0.67531439  0.74793390  0.77164715  1 0.112195
  H  H76  1  0.03887241  0.55822179  0.92513587  1 0.097368
  H  H77  1  0.05100723  0.69672779  0.92791219  1 0.119386
  H  H78  1  0.93975272  0.69984057  0.77329754  1 0.119605
  H  H79  1  0.93043486  0.56165989  0.77779846  1 0.101831
  H  H80  1  0.88816398  0.01413729  0.99787781  1 0.104552
  H  H81  1  0.79766367  0.01623001  0.07960745  1 0.108367
  H  H82  1  0.75005962  0.24992359  0.06044736  1 0.101106
  H  H83  1  0.84288517  0.24701409  0.97919476  1 0.116506
  H  H84  1  0.65470662  0.02583720  0.11655235  1 0.101102
  H  H85  1  0.76098458  0.24556274  0.14500988  1 0.093561
  H  H86  1  0.66039067  0.43086450  0.81325342  1 0.107195
  H  H87  1  0.49979214  0.37392581  0.80962049  1 0.095391
  H  H88  1  0.61828083  0.16747463  0.86138923  1 0.105148
  H  H89  1  0.77789841  0.22540553  0.86500112  1 0.121707
  H  H90  1  0.57123672  0.02913313  0.20069678  1 0.101807
  H  H91  1  0.67531464  0.24793438  0.22835281  1 0.112169
  H  H92  1  0.96112795  0.94177766  0.92513579  1 0.097372
  H  H93  1  0.94899308  0.80327154  0.92791232  1 0.119362
  H  H94  1  0.06024698  0.80015884  0.77329747  1 0.119613
  H  H95  1  0.06956486  0.93833947  0.77779820  1 0.101821
  H  H96  1  0.11183603  0.48586274  0.99787802  1 0.104509
  H  H97  1  0.20233676  0.48377023  0.07960741  1 0.108389
  H  H98  1  0.24994081  0.25007638  0.06044736  1 0.101083
  H  H99  1  0.15711495  0.25298590  0.97919494  1 0.116492
  H  H100  1  0.34529364  0.47416294  0.11655253  1 0.101092
  H  H101  1  0.23901573  0.25443727  0.14501002  1 0.093561
  H  H102  1  0.33960958  0.06913552  0.81325341  1 0.10719
  H  H103  1  0.50020803  0.12607424  0.80962058  1 0.095389
  H  H104  1  0.38171923  0.33252534  0.86138922  1 0.105147
  H  H105  1  0.22210168  0.27459443  0.86500109  1 0.121712
  H  H106  1  0.42876338  0.47086692  0.20069692  1 0.101801
  H  H107  1  0.32468561  0.25206580  0.22835291  1 0.112186
  H  H108  1  0.53887227  0.94177795  0.42513606  1 0.097367
  H  H109  1  0.55100706  0.80327190  0.42791247  1 0.11939
  H  H110  1  0.43975353  0.80015916  0.27329784  1 0.119614
  H  H111  1  0.43043568  0.93833979  0.27779836  1 0.101865
  H  H112  1  0.38816415  0.48586262  0.49787808  1 0.104545
  H  H113  1  0.29766332  0.48377009  0.57960752  1 0.108388
  H  H114  1  0.25005913  0.25007622  0.56044742  1 0.101076
  H  H115  1  0.34288499  0.25298587  0.47919497  1 0.116489
  H  H116  1  0.15470640  0.47416290  0.61655248  1 0.101112
  H  H117  1  0.26098457  0.25443734  0.64501015  1 0.093563
  H  H118  1  0.16039044  0.06913549  0.31325342  1 0.107204
  H  H119  1  -0.00020793  0.12607413  0.30962045  1 0.095385
  H  H120  1  0.11828097  0.33252534  0.36138921  1 0.105149
  H  H121  1  0.27789838  0.27459438  0.36500120  1 0.12171
  H  H122  1  0.07123672  0.47086683  0.70069702  1 0.10182
  H  H123  1  0.17531465  0.25206593  0.72835311  1 0.11217
  H  H124  1  0.46112753  0.55822212  0.42513606  1 0.09737
  H  H125  1  0.44899294  0.69672822  0.42791247  1 0.119387
  H  H126  1  0.56024663  0.69984090  0.27329779  1 0.11961
  H  H127  1  0.56956432  0.56166028  0.27779833  1 0.101864
  H  H128  1  0.61183578  0.01413743  0.49787803  1 0.104551
  H  H129  1  0.70233664  0.01623000  0.57960739  1 0.108393
  H  H130  1  0.74994072  0.24992391  0.56044716  1 0.101077
  H  H131  1  0.65711473  0.24701420  0.47919483  1 0.116478
  H  H132  1  0.84529362  0.02583712  0.61655233  1 0.101101
  H  H133  1  0.73901560  0.24556297  0.64500996  1 0.093556
  H  H134  1  0.83960959  0.43086453  0.31325335  1 0.107219
  H  H135  1  0.00020796  0.37392586  0.30962044  1 0.095384
  H  H136  1  0.88171902  0.16747465  0.36138921  1 0.105149
  H  H137  1  0.72210153  0.22540558  0.36500114  1 0.121708
  H  H138  1  0.92876322  0.02913330  0.70069678  1 0.101813
  H  H139  1  0.82468543  0.24793417  0.72835295  1 0.11218
  C  C140  1  0.48208740  0.09235686  0.60734213  1 0.103169
  C  C141  1  0.47578135  0.16886302  0.60619642  1 -0.166734
  C  C142  1  0.50294042  0.20937307  0.64961594  1 0.106842
  C  C143  1  0.53647992  0.17056575  0.69248703  1 -0.169508
  C  C144  1  0.54213130  0.09400665  0.69021394  1 0.113859
  C  C145  1  0.62866273  0.63075636  0.51638065  1 -0.050609
  C  C146  1  0.64276592  0.56559102  0.48830742  1 -0.092841
  C  C147  1  0.69433496  0.56674549  0.44280165  1 -0.135455
  C  C148  1  0.73285573  0.63319768  0.42403236  1 0.076369
  C  C149  1  0.71852767  0.69823837  0.45262240  1 -0.143544
  C  C150  1  0.66736602  0.69707525  0.49807425  1 -0.093044
  C  C151  1  0.78550115  0.63526307  0.37525245  1 0.073122
  C  C152  1  0.83979732  0.57452683  0.35901893  1 -0.122897
  C  C153  1  0.78144678  0.69808797  0.34343919  1 -0.140779
  C  C154  1  0.67946634  0.86931075  0.65444011  1 0.582683
  C  C155  1  0.77218648  0.83199534  0.66010102  1 -0.036873
  C  C156  1  0.85060569  0.87332145  0.67615807  1 -0.088704
  C  C157  1  0.93960778  0.84123208  0.67806316  1 -0.14677
  C  C158  1  0.95245063  0.76664871  0.66448305  1 0.065368
  C  C159  1  0.87269351  0.72501599  0.64998789  1 -0.135941
  C  C160  1  0.78341843  0.75711222  0.64753403  1 -0.070325
  C  C161  1  0.92768102  0.63923646  0.22881913  1 0.60721
  C  C162  1  0.88052761  0.63819082  0.28019302  1 -0.041292
  C  C163  1  0.88655837  0.57602781  0.31212170  1 -0.089103
  C  C164  1  0.82840157  0.69969264  0.29662221  1 -0.08398
  C  C165  1  0.57519612  0.63196065  0.56595620  1 0.602098
  C  C166  1  0.51791268  0.40764341  0.60734211  1 0.103149
  C  C167  1  0.52421892  0.33113740  0.60619636  1 -0.166735
  C  C168  1  0.49705986  0.29062732  0.64961594  1 0.106846
  C  C169  1  0.46352041  0.32943477  0.69248690  1 -0.169537
  C  C170  1  0.45786870  0.40599379  0.69021389  1 0.113849
  C  C171  1  0.37133674  0.86924372  0.51638087  1 -0.050555
  C  C172  1  0.35723373  0.93440922  0.48830758  1 -0.092852
  C  C173  1  0.30566485  0.93325466  0.44280178  1 -0.135464
  C  C174  1  0.26714419  0.86680261  0.42403240  1 0.076357
  C  C175  1  0.28147212  0.80176192  0.45262244  1 -0.143564
  C  C176  1  0.33263361  0.80292492  0.49807436  1 -0.093057
  C  C177  1  0.21449895  0.86473697  0.37525247  1 0.073144
  C  C178  1  0.16020281  0.92547313  0.35901880  1 -0.122891
  C  C179  1  0.21855334  0.80191196  0.34343927  1 -0.140799
  C  C180  1  0.32053357  0.63068947  0.65444021  1 0.582665
  C  C181  1  0.22781347  0.66800495  0.66010112  1 -0.036944
  C  C182  1  0.14939429  0.62667881  0.67615814  1 -0.088572
  C  C183  1  0.06039219  0.65876812  0.67806315  1 -0.14684
  C  C184  1  0.04754934  0.73335150  0.66448300  1 0.06539
  C  C185  1  0.12730640  0.77498420  0.64998785  1 -0.135933
  C  C186  1  0.21658154  0.74288807  0.64753404  1 -0.070309
  C  C187  1  0.07231885  0.86076277  0.22881945  1 0.607247
  C  C188  1  0.11947231  0.86180877  0.28019319  1 -0.041316
  C  C189  1  0.11344190  0.92397201  0.31212174  1 -0.089099
  C  C190  1  0.17159855  0.80030695  0.29662239  1 -0.083967
  C  C191  1  0.42480354  0.86803948  0.56595631  1 0.602119
  C  C192  1  0.98208750  0.40764323  0.10734215  1 0.103163
  C  C193  1  0.97578131  0.33113719  0.10619637  1 -0.166734
  C  C194  1  0.00294043  0.29062714  0.14961596  1 0.106846
  C  C195  1  0.03647989  0.32943457  0.19248694  1 -0.169559
  C  C196  1  0.04213152  0.40599359  0.19021392  1 0.113903
  C  C197  1  0.12866326  0.86924373  0.01638088  1 -0.050561
  C  C198  1  0.14276626  0.93440917  0.98830751  1 -0.092855
  C  C199  1  0.19433512  0.93325460  0.94280167  1 -0.135429
  C  C200  1  0.23285577  0.86680250  0.92403239  1 0.076335
  C  C201  1  0.21852788  0.80176180  0.95262252  1 -0.143543
  C  C202  1  0.16736638  0.80292498  -0.00192558  1 -0.093021
  C  C203  1  0.28550107  0.86473694  0.87525247  1 0.073128
  C  C204  1  0.33979728  0.92547317  0.85901892  1 -0.122893
  C  C205  1  0.28144669  0.80191189  0.84343928  1 -0.140792
  C  C206  1  0.17946666  0.63068915  0.15444016  1 0.582821
  C  C207  1  0.27218664  0.66800487  0.16010110  1 -0.03696
  C  C208  1  0.35060572  0.62667870  0.17615818  1 -0.088581
  C  C209  1  0.43960773  0.65876808  0.17806325  1 -0.146819
  C  C210  1  0.45245064  0.73335140  0.16448299  1 0.065374
  C  C211  1  0.37269358  0.77498415  0.14998778  1 -0.135911
  C  C212  1  0.28341857  0.74288798  0.14753396  1 -0.070315
  C  C213  1  0.42768088  0.86076300  0.72881932  1 0.607173
  C  C214  1  0.38052770  0.86180902  0.78019318  1 -0.04128
  C  C215  1  0.38655828  0.92397214  0.81212180  1 -0.089138
  C  C216  1  0.32840164  0.80030710  0.79662239  1 -0.083975
  C  C217  1  0.07519671  0.86803952  0.06595642  1 0.602154
  C  C218  1  0.01791278  0.09235668  0.10734217  1 0.10315
  C  C219  1  0.02421892  0.16886278  0.10619642  1 -0.166733
  C  C220  1  0.99705986  0.20937289  0.14961595  1 0.106841
  C  C221  1  0.96352042  0.17056545  0.19248701  1 -0.169532
  C  C222  1  0.95786885  0.09400642  0.19021397  1 0.113841
  C  C223  1  0.87133657  0.63075614  0.01638081  1 -0.050589
  C  C224  1  0.85723347  0.56559085  0.98830748  1 -0.092836
  C  C225  1  0.80566472  0.56674531  0.94280166  1 -0.135424
  C  C226  1  0.76714421  0.63319756  0.92403239  1 0.076361
  C  C227  1  0.78147208  0.69823817  0.95262245  1 -0.143543
  C  C228  1  0.83263348  0.69707509  -0.00192562  1 -0.093026
  C  C229  1  0.71449887  0.63526292  0.87525246  1 0.073125
  C  C230  1  0.66020266  0.57452670  0.85901890  1 -0.122894
  C  C231  1  0.71855317  0.69808789  0.84343919  1 -0.140785
  C  C232  1  0.82053332  0.86931094  0.15444016  1 0.58279
  C  C233  1  0.72781333  0.83199520  0.16010104  1 -0.036948
  C  C234  1  0.64939424  0.87332137  0.17615812  1 -0.088586
  C  C235  1  0.56039220  0.84123195  0.17806321  1 -0.146815
  C  C236  1  0.54754939  0.76664864  0.16448297  1 0.065374
  C  C237  1  0.62730645  0.72501587  0.14998774  1 -0.135909
  C  C238  1  0.71658147  0.75711208  0.14753390  1 -0.070314
  C  C239  1  0.57231898  0.63923666  0.72881935  1 0.607155
  C  C240  1  0.61947229  0.63819081  0.78019315  1 -0.04129
  C  C241  1  0.61344170  0.57602766  0.81212174  1 -0.089107
  C  C242  1  0.67159833  0.69969271  0.79662233  1 -0.083984
  C  C243  1  0.92480330  0.63196074  0.06595633  1 0.602096
  C  C244  1  0.01791249  0.59235640  0.89265764  1 0.103198
  C  C245  1  0.02421886  0.66886277  0.89380342  1 -0.166769
  C  C246  1  0.99705982  0.70937258  0.85038391  1 0.106888
  C  C247  1  0.96351987  0.67056504  0.80751292  1 -0.169545
  C  C248  1  0.95786815  0.59400594  0.80978595  1 0.113868
  C  C249  1  0.87133674  0.13075615  0.98361900  1 -0.050528
  C  C250  1  0.85723360  0.06559085  0.01169237  1 -0.092871
  C  C251  1  0.80566491  0.06674540  0.05719820  1 -0.135444
  C  C252  1  0.76714434  0.13319752  0.07596754  1 0.076416
  C  C253  1  0.78147228  0.19823816  0.04737746  1 -0.143654
  C  C254  1  0.83263368  0.19707507  0.00192548  1 -0.092989
  C  C255  1  0.71449903  0.13526308  0.12474748  1 0.073116
  C  C256  1  0.66020273  0.07452688  0.14098115  1 -0.122861
  C  C257  1  0.71855329  0.19808810  0.15656074  1 -0.140837
  C  C258  1  0.82053329  0.36931082  0.84555992  1 0.582802
  C  C259  1  0.72781334  0.33199505  0.83989892  1 -0.036948
  C  C260  1  0.64939440  0.37332129  0.82384189  1 -0.088587
  C  C261  1  0.56039237  0.34123195  0.82193689  1 -0.146816
  C  C262  1  0.54754937  0.26664862  0.83551706  1 0.065381
  C  C263  1  0.62730642  0.22501579  0.85001220  1 -0.135951
  C  C264  1  0.71658155  0.25711193  0.85246598  1 -0.070307
  C  C265  1  0.57231907  0.13923681  0.27118076  1 0.607134
  C  C266  1  0.61947249  0.13819117  0.21980692  1 -0.041293
  C  C267  1  0.61344180  0.07602791  0.18787832  1 -0.089113
  C  C268  1  0.67159854  0.19969292  0.20337765  1 -0.08396
  C  C269  1  0.92480341  0.13196042  0.93404351  1 0.602126
  C  C270  1  0.98208778  0.90764299  0.89265767  1 0.103212
  C  C271  1  0.97578169  0.83113668  0.89380339  1 -0.16672
  C  C272  1  0.00294049  0.79062691  0.85038380  1 0.106884
  C  C273  1  0.03648015  0.82943408  0.80751273  1 -0.169545
  C  C274  1  0.04213170  0.90599334  0.80978586  1 0.113897
  C  C275  1  0.12866319  0.36924395  0.98361925  1 -0.050597
  C  C276  1  0.14276650  0.43440922  0.01169260  1 -0.092834
  C  C277  1  0.19433541  0.43325468  0.05719833  1 -0.135428
  C  C278  1  0.23285595  0.36680249  0.07596762  1 0.076355
  C  C279  1  0.21852797  0.30176182  0.04737753  1 -0.14354
  C  C280  1  0.16736639  0.30292498  0.00192564  1 -0.093038
  C  C281  1  0.28550127  0.36473701  0.12474755  1 0.073126
  C  C282  1  0.33979744  0.42547318  0.14098123  1 -0.122877
  C  C283  1  0.28144690  0.30191197  0.15656081  1 -0.14078
  C  C284  1  0.17946659  0.13068910  0.84555992  1 0.582789
  C  C285  1  0.27218663  0.16800485  0.83989894  1 -0.036945
  C  C286  1  0.35060569  0.12667873  0.82384190  1 -0.088577
  C  C287  1  0.43960773  0.15876811  0.82193688  1 -0.146817
  C  C288  1  0.45245069  0.23335142  0.83551702  1 0.065379
  C  C289  1  0.37269360  0.27498419  0.85001217  1 -0.13595
  C  C290  1  0.28341848  0.24288798  0.85246597  1 -0.070304
  C  C291  1  0.42768095  0.36076312  0.27118085  1 0.607172
  C  C292  1  0.38052759  0.36180895  0.21980700  1 -0.041302
  C  C293  1  0.38655829  0.42397217  0.18787842  1 -0.089101
  C  C294  1  0.32840165  0.30030716  0.20337771  1 -0.083987
  C  C295  1  0.07519625  0.36803978  0.93404388  1 0.60206
  C  C296  1  0.51791262  0.90764336  0.39265790  1 0.103147
  C  C297  1  0.52421880  0.83113725  0.39380356  1 -0.166703
  C  C298  1  0.49705979  0.79062717  0.35038406  1 0.106836
  C  C299  1  0.46352036  0.82943464  0.30751307  1 -0.169532
  C  C300  1  0.45786873  0.90599370  0.30978614  1 0.113846
  C  C301  1  0.37133687  0.36924386  0.48361919  1 -0.050599
  C  C302  1  0.35723361  0.43440905  0.51169255  1 -0.092848
  C  C303  1  0.30566471  0.43325466  0.55719828  1 -0.135459
  C  C304  1  0.26714407  0.36680242  0.57596768  1 0.076374
  C  C305  1  0.28147189  0.30176174  0.54737760  1 -0.143541
  C  C306  1  0.33263352  0.30292490  0.50192565  1 -0.093035
  C  C307  1  0.21449877  0.36473700  0.62474766  1 0.073129
  C  C308  1  0.16020268  0.42547323  0.64098126  1 -0.122912
  C  C309  1  0.21855333  0.30191200  0.65656083  1 -0.14079
  C  C310  1  0.32053323  0.13068905  0.34555993  1 0.582788
  C  C311  1  0.22781324  0.16800483  0.33989897  1 -0.036932
  C  C312  1  0.14939423  0.12667870  0.32384189  1 -0.088616
  C  C313  1  0.06039218  0.15876806  0.32193683  1 -0.146799
  C  C314  1  0.04754938  0.23335141  0.33551703  1 0.065379
  C  C315  1  0.12730645  0.27498416  0.35001220  1 -0.135952
  C  C316  1  0.21658151  0.24288798  0.35246603  1 -0.070307
  C  C317  1  0.07231901  0.36076322  0.77118091  1 0.60713
  C  C318  1  0.11947263  0.36180895  0.71980712  1 -0.041286
  C  C319  1  0.11344178  0.42397217  0.68787854  1 -0.089133
  C  C320  1  0.17159862  0.30030727  0.70337784  1 -0.083931
  C  C321  1  0.42480371  0.36803937  0.43404373  1 0.602084
  C  C322  1  0.48208733  0.59235673  0.39265790  1 0.103147
  C  C323  1  0.47578123  0.66886284  0.39380359  1 -0.166701
  C  C324  1  0.50294031  0.70937291  0.35038404  1 0.106839
  C  C325  1  0.53647978  0.67056549  0.30751304  1 -0.169541
  C  C326  1  0.54213125  0.59400641  0.30978608  1 0.113853
  C  C327  1  0.62866307  0.13075630  0.48361922  1 -0.050576
  C  C328  1  0.64276630  0.06559093  0.51169254  1 -0.092875
  C  C329  1  0.69433540  0.06674557  0.55719821  1 -0.135502
  C  C330  1  0.73285596  0.13319769  0.57596754  1 0.076488
  C  C331  1  0.71852810  0.19823842  0.54737743  1 -0.143578
  C  C332  1  0.66736631  0.19707513  0.50192558  1 -0.093
  C  C333  1  0.78550122  0.13526323  0.62474745  1 0.073095
  C  C334  1  0.83979730  0.07452691  0.64098102  1 -0.122867
  C  C335  1  0.78144680  0.19808818  0.65656077  1 -0.140829
  C  C336  1  0.67946613  0.36931055  0.34555996  1 0.582674
  C  C337  1  0.77218647  0.33199519  0.33989899  1 -0.036865
  C  C338  1  0.85060562  0.37332131  0.32384192  1 -0.088703
  C  C339  1  0.93960773  0.34123198  0.32193684  1 -0.146773
  C  C340  1  0.95245067  0.26664861  0.33551702  1 0.065374
  C  C341  1  0.87269354  0.22501586  0.35001217  1 -0.135947
  C  C342  1  0.78341843  0.25711201  0.35246602  1 -0.070325
  C  C343  1  0.92768108  0.13923674  0.77118067  1 0.607162
  C  C344  1  0.88052754  0.13819105  0.71980686  1 -0.041299
  C  C345  1  0.88655813  0.07602796  0.68787821  1 -0.089113
  C  C346  1  0.82840154  0.19969288  0.70337769  1 -0.083976
  C  C347  1  0.57519605  0.13196032  0.43404384  1 0.601954
  N  N348  1  0.51492957  0.05558126  0.64855695  1 -0.22335
  N  N349  1  0.48507035  0.44441927  0.64855680  1 -0.223318
  N  N350  1  0.01492981  0.44441902  0.14855684  1 -0.22336
  N  N351  1  0.98507049  0.05558097  0.14855696  1 -0.223306
  N  N352  1  0.98506998  0.55558074  0.85144292  1 -0.223338
  N  N353  1  0.01493011  0.94441872  0.85144289  1 -0.223383
  N  N354  1  0.48507032  0.94441917  0.35144316  1 -0.223322
  N  N355  1  0.51492951  0.55558097  0.35144316  1 -0.223314
  O  O356  1  0.67299874  0.93905102  0.66217067  1 -0.546584
  O  O357  1  0.96641373  0.57831408  0.21443177  1 -0.565983
  O  O358  1  0.53732216  0.57061881  0.58049768  1 -0.565575
  O  O359  1  0.57297073  0.69264622  0.58967280  1 -0.560217
  O  O360  1  0.60654396  0.83311320  0.63996954  1 -0.57812
  O  O361  1  0.92426138  0.69879590  0.20363006  1 -0.568095
  O  O362  1  0.32700093  0.56094920  0.66217082  1 -0.546561
  O  O363  1  0.03358662  0.92168548  0.21443173  1 -0.566018
  O  O364  1  0.46267643  0.92938154  0.58049814  1 -0.565569
  O  O365  1  0.42702971  0.80735364  0.58967296  1 -0.560233
  O  O366  1  0.39345609  0.66688689  0.63996967  1 -0.578124
  O  O367  1  0.07573772  0.80120286  0.20363104  1 -0.568081
  O  O368  1  0.17299938  0.56094893  0.16217049  1 -0.546633
  O  O369  1  0.46641347  0.92168562  0.71443160  1 -0.565973
  O  O370  1  0.03732381  0.92938153  0.08049821  1 -0.565569
  O  O371  1  0.07297054  0.80735365  0.08967312  1 -0.560278
  O  O372  1  0.10654378  0.66688637  0.13996975  1 -0.578219
  O  O373  1  0.42426151  0.80120319  0.70363088  1 -0.568056
  O  O374  1  0.82700074  0.93905114  0.16217063  1 -0.546604
  O  O375  1  0.53358673  0.57831419  0.71443169  1 -0.565959
  O  O376  1  0.96267611  0.57061844  0.08049821  1 -0.565575
  O  O377  1  0.92702973  0.69264635  0.08967273  1 -0.560216
  O  O378  1  0.89345618  0.83311374  0.13996965  1 -0.578219
  O  O379  1  0.57573809  0.69879653  0.70363070  1 -0.568033
  O  O380  1  0.82700046  0.43905111  0.83782946  1 -0.546606
  O  O381  1  0.53358688  0.07831443  0.28556828  1 -0.565938
  O  O382  1  0.96267615  0.07061786  0.91950156  1 -0.565607
  O  O383  1  0.92702994  0.19264579  0.91032680  1 -0.560237
  O  O384  1  0.89345607  0.33311364  0.86003024  1 -0.578215
  O  O385  1  0.57573819  0.19879665  0.29636961  1 -0.56805
  O  O386  1  0.17299921  0.06094887  0.83782930  1 -0.546604
  O  O387  1  0.46641318  0.42168571  0.28556840  1 -0.565944
  O  O388  1  0.03732216  0.42938192  0.91950239  1 -0.565493
  O  O389  1  0.07297056  0.30735453  0.91032694  1 -0.560251
  O  O390  1  0.10654384  0.16688624  0.86003032  1 -0.578214
  O  O391  1  0.42426172  0.30120352  0.29636963  1 -0.568064
  O  O392  1  0.32700057  0.06094885  0.33782938  1 -0.54661
  O  O393  1  0.03358699  0.42168563  0.78556842  1 -0.565978
  O  O394  1  0.46267791  0.42938183  0.41950229  1 -0.565544
  O  O395  1  0.42702872  0.30735451  0.41032682  1 -0.56024
  O  O396  1  0.39345601  0.16688632  0.36003032  1 -0.578221
  O  O397  1  0.07573790  0.30120339  0.79636976  1 -0.568046
  O  O398  1  0.67299892  0.43905083  0.33782929  1 -0.546564
  O  O399  1  0.96641339  0.07831426  0.78556811  1 -0.565946
  O  O400  1  0.53732221  0.07061831  0.41950234  1 -0.565483
  O  O401  1  0.57297035  0.19264580  0.41032692  1 -0.560187
  O  O402  1  0.60654393  0.33311308  0.36003043  1 -0.578126
  O  O403  1  0.92426192  0.19879636  0.79636956  1 -0.568043
