# generated using pymatgen
data_Cd3C9N7
_symmetry_space_group_name_H-M   'P 1'
_cell_length_a   41.68507700
_cell_length_b   14.16820200
_cell_length_c   8.89203300
_cell_angle_alpha   90.00000000
_cell_angle_beta   90.00000000
_cell_angle_gamma   90.00000000
_symmetry_Int_Tables_number   1
_chemical_formula_structural   Cd3C9N7
_chemical_formula_sum   'Cd24 C72 N56'
_cell_volume   5251.65773192
_cell_formula_units_Z   8
loop_
 _symmetry_equiv_pos_site_id
 _symmetry_equiv_pos_as_xyz
  1  'x, y, z'
loop_
 _atom_site_type_symbol
 _atom_site_label
 _atom_site_symmetry_multiplicity
 _atom_site_fract_x
 _atom_site_fract_y
 _atom_site_fract_z
 _atom_site_occupancy
 _atom_site_charge
  Cd  Cd0  1  0.05213271  0.32621314  0.19900186  1 0.98591
  Cd  Cd1  1  0.02515034  0.68966826  0.19772873  1 0.416346
  Cd  Cd2  1  0.11299308  0.98121008  0.22019191  1 0.462319
  Cd  Cd3  1  0.44121727  0.85151811  0.75646617  1 0.98591
  Cd  Cd4  1  0.47102837  0.21111002  0.85498458  1 0.416346
  Cd  Cd5  1  0.38696382  0.49836519  0.75686623  1 0.462319
  Cd  Cd6  1  0.94557523  0.66464866  0.69778193  1 0.98591
  Cd  Cd7  1  0.97223191  0.30180346  0.69917374  1 0.416346
  Cd  Cd8  1  0.88725263  0.00831851  0.78782182  1 0.462319
  Cd  Cd9  1  0.54925766  0.18848616  0.35667732  1 0.98591
  Cd  Cd10  1  0.52122175  0.83026542  0.25707836  1 0.416346
  Cd  Cd11  1  0.60836209  0.53399882  0.29515717  1 0.462319
  Cd  Cd12  1  0.18664417  0.86395395  0.72112659  1 0.982038
  Cd  Cd13  1  0.25699213  0.20079666  0.76369372  1 0.457516
  Cd  Cd14  1  0.16850768  0.48837406  0.80880700  1 0.887018
  Cd  Cd15  1  0.31722432  0.36408639  0.25916260  1 0.982038
  Cd  Cd16  1  0.24646065  0.69893476  0.21785867  1 0.457519
  Cd  Cd17  1  0.32920666  0.00197771  0.16467312  1 0.887021
  Cd  Cd18  1  0.81502981  0.13344495  0.29044723  1 0.982038
  Cd  Cd19  1  0.74775272  0.79172204  0.30186633  1 0.457516
  Cd  Cd20  1  0.83706152  0.50788887  0.36494688  1 0.887018
  Cd  Cd21  1  0.68449092  0.63603110  0.79751249  1 0.982038
  Cd  Cd22  1  0.75377988  0.29559185  0.79639312  1 0.457519
  Cd  Cd23  1  0.66481770  0.01274936  0.87679038  1 0.887021
  C  C24  1  0.99921708  0.30775637  0.48402152  1 0.001892
  C  C25  1  0.11251425  0.70074788  0.39494728  1 0.309915
  C  C26  1  0.14073777  0.95035647  0.42811286  1 -0.019932
  C  C27  1  0.22250692  0.74630645  0.42570282  1 -0.024576
  C  C28  1  0.07698385  0.56492136  0.72381217  1 -0.091964
  C  C29  1  0.48452459  0.84888256  0.43979309  1 0.001892
  C  C30  1  0.41557981  0.19059132  0.51787564  1 0.309915
  C  C31  1  0.36285362  0.45604986  0.54697272  1 -0.019932
  C  C32  1  0.28182257  0.24683242  0.55656697  1 -0.024576
  C  C33  1  0.42703123  -0.00072479  0.21808175  1 -0.091964
  C  C34  1  0.99874829  0.67735957  0.98214758  1 0.001891
  C  C35  1  0.88660479  0.28222115  0.94497669  1 0.309915
  C  C36  1  0.86167075  0.04151797  0.00009832  1 -0.019932
  C  C37  1  0.78188519  0.25790580  -0.00154977  1 -0.024576
  C  C38  1  0.92681592  0.42960224  0.24676902  1 -0.091964
  C  C39  1  0.49523070  0.20291893  0.07725155  1 0.001891
  C  C40  1  0.59259534  0.01045943  0.83169013  1 0.309915
  C  C41  1  0.63723638  0.56120535  0.09171836  1 -0.019932
  C  C42  1  0.72392281  0.74605271  0.09248942  1 -0.024576
  C  C43  1  0.58919399  0.81820584  0.55911437  1 -0.091964
  C  C44  1  0.98891719  0.67445364  0.38226533  1 0.001892
  C  C45  1  0.90905738  0.49789279  0.30866594  1 0.309916
  C  C46  1  0.85881784  0.04851879  0.58811735  1 -0.01993
  C  C47  1  0.77624319  0.24936543  0.58426709  1 -0.024575
  C  C48  1  0.91089300  0.29730568  0.04957767  1 -0.091963
  C  C49  1  0.50999649  0.19345074  0.68092433  1 0.001892
  C  C50  1  0.61279615  0.80655756  0.44997907  1 0.309916
  C  C51  1  0.63649087  0.56304663  0.50266080  1 -0.01993
  C  C52  1  0.72036900  0.75564866  0.50653773  1 -0.024575
  C  C53  1  0.57413111  0.94491007  0.76661466  1 -0.091963
  C  C54  1  0.00840823  0.32312170  0.88322880  1 0.001892
  C  C55  1  0.09568640  0.49945029  0.78735416  1 0.309916
  C  C56  1  0.14001823  0.94413658  0.01535856  1 -0.01993
  C  C57  1  0.21994981  0.73270728  0.00969577  1 -0.024575
  C  C58  1  0.09008628  0.68923635  0.50950312  1 -0.091963
  C  C59  1  0.49347420  0.84051385  0.04413200  1 0.001892
  C  C60  1  0.40198274  0.96100732  0.14715243  1 0.309916
  C  C61  1  0.36041053  0.45478695  0.96208850  1 -0.01993
  C  C62  1  0.28398802  0.23068595  0.97352107  1 -0.024575
  C  C63  1  0.43383969  0.13062454  0.42813830  1 -0.091963
  C  C64  1  0.09632101  0.13296188  0.21267266  1 0.030439
  C  C65  1  0.05423765  0.55522242  0.21718621  1 -0.022846
  C  C66  1  0.05158704  0.81904780  0.23865821  1 -0.139657
  C  C67  1  0.07060159  0.88914042  0.24456806  1 -0.13773
  C  C68  1  0.39998510  0.65335321  0.75779486  1 0.030439
  C  C69  1  0.44235323  0.07917019  0.81914297  1 -0.022846
  C  C70  1  0.45107413  0.35118529  0.81731684  1 -0.139657
  C  C71  1  0.43335764  0.42208961  0.78732769  1 -0.13773
  C  C72  1  0.90292223  0.85706657  0.75909099  1 0.030439
  C  C73  1  0.94290163  0.43561695  0.70900151  1 -0.022846
  C  C74  1  0.94754863  0.17286881  0.76178346  1 -0.139657
  C  C75  1  0.92962571  0.10208693  0.78818433  1 -0.13773
  C  C76  1  0.59173130  0.38268567  0.30757651  1 0.030439
  C  C77  1  0.55053206  0.96338978  0.28754320  1 -0.022846
  C  C78  1  0.54874716  0.70240001  0.28713736  1 -0.139657
  C  C79  1  0.56784500  0.63261672  0.29761107  1 -0.13773
  C  C80  1  0.15732849  0.62653144  0.74454685  1 -0.128777
  C  C81  1  0.23515232  0.05964152  0.74760115  1 -0.044279
  C  C82  1  0.21601963  0.30912777  0.79740117  1 0.052077
  C  C83  1  0.07737649  0.63559006  0.63084488  1 0.211024
  C  C84  1  0.35127074  0.12864289  0.22154277  1 -0.128777
  C  C85  1  0.26872492  0.55888608  0.23426378  1 -0.044279
  C  C86  1  0.28410933  0.81764212  0.18689628  1 0.052077
  C  C87  1  0.43707446  0.05904056  0.31735881  1 0.211024
  C  C88  1  0.84712834  0.36506380  0.32927869  1 -0.128777
  C  C89  1  0.76782357  0.93492618  0.29097687  1 -0.044279
  C  C90  1  0.78984144  0.68701408  0.33671562  1 0.052077
  C  C91  1  0.92521140  0.35548429  0.16139799  1 0.211024
  C  C92  1  0.65374187  0.87148008  0.83403596  1 -0.128777
  C  C93  1  0.73197678  0.43692560  0.79255469  1 -0.044279
  C  C94  1  0.71220895  0.19035127  0.83983062  1 0.052077
  C  C95  1  0.57544466  0.87297938  0.67647260  1 0.211024
  N  N96  1  0.01647694  0.31194816  0.38081555  1 -0.365513
  N  N97  1  0.13203029  0.69944816  0.30039934  1 -0.335355
  N  N98  1  0.15441120  0.92472663  0.53525661  1 -0.301373
  N  N99  1  0.21077063  0.77853796  0.53325301  1 -0.307448
  N  N100  1  0.46609767  0.85481762  0.53836429  1 -0.365513
  N  N101  1  0.39932107  0.23607100  0.59694311  1 -0.335356
  N  N102  1  0.34967439  0.42657116  0.44108461  1 -0.301373
  N  N103  1  0.29472906  0.27505194  0.44899609  1 -0.307448
  N  N104  1  0.98203558  0.67232096  0.87712456  1 -0.365513
  N  N105  1  0.86533524  0.28156797  0.85904129  1 -0.335355
  N  N106  1  0.84847993  0.07015151  0.10670871  1 -0.301373
  N  N107  1  0.79439313  0.22575316  0.10416191  1 -0.307448
  N  N108  1  0.51136013  0.20228479  0.18457761  1 -0.365513
  N  N109  1  0.61051517  0.06485715  0.88938243  1 -0.335356
  N  N110  1  0.65164052  0.58337411  0.98482541  1 -0.301373
  N  N111  1  0.71088404  0.71887577  0.98461058  1 -0.307448
  N  N112  1  0.97062358  0.67040041  0.48151280  1 -0.365513
  N  N113  1  0.89186812  0.55519379  0.36401379  1 -0.335354
  N  N114  1  0.84570266  0.07646278  0.48106208  1 -0.301373
  N  N115  1  0.78848210  0.22013512  0.47566033  1 -0.307449
  N  N116  1  0.52866619  0.18900853  0.58315269  1 -0.365513
  N  N117  1  0.63350897  0.80911301  0.36120555  1 -0.335354
  N  N118  1  0.65064007  0.58441186  0.61080982  1 -0.301373
  N  N119  1  0.70762069  0.72646587  0.61380013  1 -0.307449
  N  N120  1  0.02637777  0.32718798  0.98376754  1 -0.365513
  N  N121  1  0.11378949  0.44464826  0.84281486  1 -0.335354
  N  N122  1  0.15347608  0.91757443  0.90827280  1 -0.301373
  N  N123  1  0.20839095  0.76634235  0.90274117  1 -0.307449
  N  N124  1  0.47631804  0.84006817  0.94033003  1 -0.365513
  N  N125  1  0.37895000  0.92904256  0.08718055  1 -0.335354
  N  N126  1  0.34776507  0.42261124  0.06745632  1 -0.301373
  N  N127  1  0.29636531  0.26029211  0.08163564  1 -0.307449
  N  N128  1  0.08519431  0.20871974  0.21000622  1 -0.379339
  N  N129  1  0.06407525  0.47787613  0.22171527  1 -0.368885
  N  N130  1  0.40930162  0.73123194  0.75898177  1 -0.379339
  N  N131  1  0.43186817  0.00467084  0.79030205  1 -0.368885
  N  N132  1  0.91325942  0.78163103  0.73669142  1 -0.379339
  N  N133  1  0.93305311  0.51296730  0.71240779  1 -0.368885
  N  N134  1  0.58131332  0.30661580  0.32229924  1 -0.379339
  N  N135  1  0.56094516  0.03838211  0.31350617  1 -0.368885
  N  N136  1  0.14692263  0.69855692  0.70312675  1 -0.241721
  N  N137  1  0.22199534  0.98719621  0.73743219  1 -0.324294
  N  N138  1  0.19728148  0.36941050  0.81750102  1 -0.36667
  N  N139  1  0.06370930  0.72041485  0.57044976  1 -0.061788
  N  N140  1  0.36705921  0.19353012  0.25492537  1 -0.241721
  N  N141  1  0.28127711  0.48559897  0.24586128  1 -0.324294
  N  N142  1  0.29917613  0.88627814  0.16720052  1 -0.36667
  N  N143  1  0.46287794  0.10071246  0.40223064  1 -0.061788
  N  N144  1  0.85606850  0.28969479  0.29627545  1 -0.241721
  N  N145  1  0.78000899  0.00900459  0.28507550  1 -0.324294
  N  N146  1  0.80866627  0.62747438  0.36044865  1 -0.36667
  N  N147  1  0.93825827  0.26886952  0.10368964  1 -0.061788
  N  N148  1  0.64434317  0.79717635  0.79785278  1 -0.241721
  N  N149  1  0.71852097  0.50917030  0.79140927  1 -0.324294
  N  N150  1  0.69362258  0.13122180  0.86944014  1 -0.36667
  N  N151  1  0.56219098  0.78787315  0.61455112  1 -0.061788
