# generated using pymatgen
data_Y3H6(C3O4)4
_symmetry_space_group_name_H-M   'P 1'
_cell_length_a   18.60514322
_cell_length_b   18.60500268
_cell_length_c   18.60490001
_cell_angle_alpha   90.00038040
_cell_angle_beta   89.99994938
_cell_angle_gamma   89.99997816
_symmetry_Int_Tables_number   1
_chemical_formula_structural   Y3H6(C3O4)4
_chemical_formula_sum   'Y24 H48 C96 O128'
_cell_volume   6440.06268505
_cell_formula_units_Z   8
loop_
 _symmetry_equiv_pos_site_id
 _symmetry_equiv_pos_as_xyz
  1  'x, y, z'
loop_
 _atom_site_type_symbol
 _atom_site_label
 _atom_site_symmetry_multiplicity
 _atom_site_fract_x
 _atom_site_fract_y
 _atom_site_fract_z
 _atom_site_occupancy
 _atom_site_charge
  Y  Y0  1  0.98843960  0.48580401  0.84739868  1 1.793413
  Y  Y1  1  0.51156406  0.01419853  0.84739726  1 1.793385
  Y  Y2  1  0.51156322  0.48579826  0.65259699  1 1.793316
  Y  Y3  1  0.98843586  0.01419792  0.65260227  1 1.79341
  Y  Y4  1  0.84738863  0.98842983  0.48580133  1 1.793703
  Y  Y5  1  0.84739254  0.51156672  0.01419879  1 1.793429
  Y  Y6  1  0.65261960  0.51156302  0.48580795  1 1.793383
  Y  Y7  1  0.65260740  0.98843489  0.01419790  1 1.793513
  Y  Y8  1  0.48580326  0.84738994  0.98843626  1 1.793572
  Y  Y9  1  0.01419540  0.84739368  0.51156232  1 1.793497
  Y  Y10  1  0.48579973  0.65260269  0.51156525  1 1.793416
  Y  Y11  1  0.01419607  0.65261104  0.98843511  1 1.793506
  Y  Y12  1  0.01156373  0.51419986  0.15260269  1 1.79359
  Y  Y13  1  0.48843555  0.98580004  0.15260512  1 1.793466
  Y  Y14  1  0.48842743  0.51419943  0.34738005  1 1.793583
  Y  Y15  1  0.01156506  0.98579817  0.34739830  1 1.793439
  Y  Y16  1  0.15261201  0.01156702  0.51420012  1 1.793503
  Y  Y17  1  0.15260828  0.48843019  0.98579742  1 1.793445
  Y  Y18  1  0.34738996  0.48843182  0.51420054  1 1.793405
  Y  Y19  1  0.34738987  0.01156802  0.98579954  1 1.793559
  Y  Y20  1  0.51419901  0.15260851  0.01156588  1 1.793489
  Y  Y21  1  0.98580231  0.15261367  0.48843516  1 1.793608
  Y  Y22  1  0.51419989  0.34740949  0.48844263  1 1.793296
  Y  Y23  1  0.98580016  0.34738568  0.01156798  1 1.793507
  H  H24  1  0.69151043  0.50160749  0.80906922  1 0.138694
  H  H25  1  0.97444937  0.19149545  0.80909406  1 0.139027
  H  H26  1  0.80848964  0.99839214  0.80906639  1 0.138704
  H  H27  1  0.52555069  0.30850661  0.80909296  1 0.139045
  H  H28  1  0.80848959  0.50160792  0.69093650  1 0.138695
  H  H29  1  0.52555104  0.19149293  0.69090625  1 0.138994
  H  H30  1  0.69151052  0.99839214  0.69093366  1 0.138693
  H  H31  1  0.97444936  0.30850683  0.69090792  1 0.139024
  H  H32  1  0.80906434  0.69150715  0.50160854  1 0.13868
  H  H33  1  0.80909195  0.97444956  0.19149212  1 0.138999
  H  H34  1  0.80906557  0.80849137  0.99839150  1 0.138676
  H  H35  1  0.80909214  0.52555085  0.30850915  1 0.139026
  H  H36  1  0.69093434  0.80849003  0.50160814  1 0.138689
  H  H37  1  0.69090984  0.52555085  0.19149250  1 0.139041
  H  H38  1  0.69093590  0.69150931  0.99839153  1 0.138701
  H  H39  1  0.69090830  0.97444931  0.30850732  1 0.139013
  H  H40  1  0.50160831  0.80906312  0.69150981  1 0.138664
  H  H41  1  0.19149335  0.80909336  0.97444925  1 0.139019
  H  H42  1  0.99839235  0.80906511  0.80848998  1 0.138652
  H  H43  1  0.30850411  0.80909203  0.52555091  1 0.139034
  H  H44  1  0.50160839  0.69093295  0.80849073  1 0.138681
  H  H45  1  0.19149310  0.69090550  0.52555026  1 0.139002
  H  H46  1  0.99839236  0.69093329  0.69150823  1 0.138685
  H  H47  1  0.30850591  0.69090769  0.97444946  1 0.139022
  H  H48  1  0.30848751  0.49839177  0.19093687  1 0.138678
  H  H49  1  0.02555078  0.80850495  0.19090720  1 0.139041
  H  H50  1  0.19151015  0.00160812  0.19093362  1 0.138675
  H  H51  1  0.47444946  0.69149357  0.19090949  1 0.139051
  H  H52  1  0.19150609  0.49839060  0.30906752  1 0.138655
  H  H53  1  0.47444958  0.80850816  0.30909475  1 0.138997
  H  H54  1  0.30848977  0.00160823  0.30906627  1 0.138695
  H  H55  1  0.02555084  0.69149142  0.30909215  1 0.139032
  H  H56  1  0.19093773  0.30849113  0.49839120  1 0.138675
  H  H57  1  0.19090942  0.02555075  0.80850802  1 0.139017
  H  H58  1  0.19093604  0.19150832  0.00160871  1 0.138696
  H  H59  1  0.19091014  0.47444912  0.69149207  1 0.139018
  H  H60  1  0.30906762  0.19150761  0.49839166  1 0.138662
  H  H61  1  0.30909092  0.47444893  0.80850850  1 0.138995
  H  H62  1  0.30906442  0.30849153  0.00160866  1 0.138694
  H  H63  1  0.30909149  0.02555080  0.69149235  1 0.139017
  H  H64  1  0.49839239  0.19093104  0.30849402  1 0.138641
  H  H65  1  0.80850631  0.19090804  0.02555049  1 0.139032
  H  H66  1  0.00160849  0.19093408  0.19150911  1 0.138674
  H  H67  1  0.69149233  0.19090336  0.47444930  1 0.138983
  H  H68  1  0.49839302  0.30906278  0.19151367  1 0.138657
  H  H69  1  0.80850397  0.30908905  0.47444928  1 0.139067
  H  H70  1  0.00160813  0.30906491  0.30849213  1 0.138683
  H  H71  1  0.69149357  0.30909214  0.02555023  1 0.139021
  C  C72  1  0.97518658  0.30670620  0.83650826  1 0.681027
  C  C73  1  0.74528994  0.50116575  0.78573732  1 -0.167535
  C  C74  1  0.97432680  0.24523049  0.78570631  1 -0.17002
  C  C75  1  0.80686230  0.50130991  0.83707501  1 0.674121
  C  C76  1  0.52481342  0.19329469  0.83650669  1 0.681058
  C  C77  1  0.75471033  0.99883370  0.78573361  1 -0.167457
  C  C78  1  0.52567352  0.25477074  0.78570478  1 -0.170153
  C  C79  1  0.69313887  0.99868858  0.83707311  1 0.674111
  C  C80  1  0.52481247  0.30670542  0.66349283  1 0.681078
  C  C81  1  0.75471103  0.50116610  0.71427025  1 -0.167291
  C  C82  1  0.52567355  0.24522885  0.71429346  1 -0.170037
  C  C83  1  0.69314156  0.50131165  0.66292829  1 0.674281
  C  C84  1  0.97518650  0.19329595  0.66349424  1 0.680958
  C  C85  1  0.74528991  0.99883402  0.71426636  1 -0.16742
  C  C86  1  0.97432671  0.25477181  0.71429554  1 -0.170121
  C  C87  1  0.80686089  0.99868987  0.66292691  1 0.674219
  C  C88  1  0.83650627  0.97518696  0.30670440  1 0.681053
  C  C89  1  0.78573185  0.74528687  0.50116759  1 -0.167498
  C  C90  1  0.78570531  0.97432659  0.24522804  1 -0.170104
  C  C91  1  0.83707055  0.80685871  0.50131212  1 0.674359
  C  C92  1  0.83650641  0.52481319  0.19329619  1 0.681076
  C  C93  1  0.78573329  0.75471215  0.99883286  1 -0.167425
  C  C94  1  0.78570571  0.52567372  0.25477293  1 -0.170149
  C  C95  1  0.83707001  0.69313904  0.99868884  1 0.674117
  C  C96  1  0.66349330  0.52481323  0.30670360  1 0.681189
  C  C97  1  0.71426510  0.75470959  0.50116716  1 -0.167363
  C  C98  1  0.71429574  0.52567342  0.24522882  1 -0.170144
  C  C99  1  0.66292802  0.69313692  0.50131007  1 0.67395
  C  C100  1  0.66349387  0.97518701  0.19329451  1 0.680986
  C  C101  1  0.71426674  0.74528924  0.99883289  1 -0.167418
  C  C102  1  0.71429500  0.97432670  0.25477117  1 -0.170047
  C  C103  1  0.66292769  0.80686039  0.99868915  1 0.674258
  C  C104  1  0.30670431  0.83650665  0.97518648  1 0.681052
  C  C105  1  0.50116706  0.78573179  0.74528989  1 -0.167365
  C  C106  1  0.24522838  0.78570543  0.97432672  1 -0.170131
  C  C107  1  0.50131124  0.83707085  0.80686168  1 0.674034
  C  C108  1  0.19329279  0.83650696  0.52481297  1 0.680952
  C  C109  1  0.99883359  0.78573383  0.75470930  1 -0.167355
  C  C110  1  0.25476864  0.78570509  0.52567297  1 -0.170027
  C  C111  1  0.99868892  0.83707384  0.69313884  1 0.674007
  C  C112  1  0.30670579  0.66349425  0.52481438  1 0.681097
  C  C113  1  0.50116717  0.71426482  0.75471076  1 -0.167407
  C  C114  1  0.24522809  0.71429393  0.52567324  1 -0.170133
  C  C115  1  0.50131232  0.66292720  0.69313763  1 0.674041
  C  C116  1  0.19329506  0.66349310  0.97518669  1 0.681085
  C  C117  1  0.99883341  0.71426686  0.74528801  1 -0.167429
  C  C118  1  0.25477053  0.71429479  0.97432694  1 -0.170051
  C  C119  1  0.99868810  0.66292983  0.80686113  1 0.674068
  C  C120  1  0.02481321  0.69329358  0.16349205  1 0.680983
  C  C121  1  0.25470740  0.49883294  0.21426691  1 -0.167325
  C  C122  1  0.02567345  0.75476886  0.21429381  1 -0.170041
  C  C123  1  0.19313995  0.49868926  0.16292348  1 0.674209
  C  C124  1  0.47518651  0.80670417  0.16349346  1 0.681121
  C  C125  1  0.24528950  0.00116659  0.21426612  1 -0.167434
  C  C126  1  0.47432666  0.74522981  0.21429619  1 -0.170198
  C  C127  1  0.30685898  0.00131061  0.16292497  1 0.67433
  C  C128  1  0.47518759  0.69329510  0.33650603  1 0.681093
  C  C129  1  0.24528456  0.49883239  0.28573387  1 -0.167446
  C  C130  1  0.47432655  0.75477232  0.28570753  1 -0.170074
  C  C131  1  0.30685561  0.49869023  0.33707294  1 0.674079
  C  C132  1  0.02481371  0.80670405  0.33650611  1 0.680969
  C  C133  1  0.25471064  0.00116651  0.28573321  1 -0.167437
  C  C134  1  0.02567370  0.74522730  0.28570494  1 -0.170129
  C  C135  1  0.19314034  0.00131063  0.33707379  1 0.674094
  C  C136  1  0.16349304  0.02481337  0.69329678  1 0.68103
  C  C137  1  0.21426984  0.25471128  0.49883241  1 -0.167277
  C  C138  1  0.21429505  0.02567367  0.75477177  1 -0.170114
  C  C139  1  0.16292790  0.19314195  0.49868964  1 0.674185
  C  C140  1  0.16349411  0.47518678  0.80670349  1 0.680852
  C  C141  1  0.21426730  0.24528791  0.00116724  1 -0.167452
  C  C142  1  0.21429562  0.47432604  0.74522859  1 -0.170083
  C  C143  1  0.16292574  0.30685653  0.00131073  1 0.674295
  C  C144  1  0.33650513  0.47518702  0.69329564  1 0.681205
  C  C145  1  0.28573632  0.24528766  0.49883211  1 -0.167507
  C  C146  1  0.28570566  0.47432622  0.75477216  1 -0.170107
  C  C147  1  0.33707369  0.30686058  0.49868669  1 0.674189
  C  C148  1  0.33650594  0.02481295  0.80670446  1 0.680948
  C  C149  1  0.28573315  0.25471192  0.00116734  1 -0.167407
  C  C150  1  0.28570525  0.02567363  0.74522848  1 -0.17004
  C  C151  1  0.33707322  0.19314189  0.00131097  1 0.67424
  C  C152  1  0.69329637  0.16349370  0.02481360  1 0.68103
  C  C153  1  0.49883398  0.21426422  0.25471484  1 -0.167407
  C  C154  1  0.75477116  0.21429513  0.02567310  1 -0.170161
  C  C155  1  0.49868905  0.16292589  0.19314229  1 0.674175
  C  C156  1  0.80670471  0.16349232  0.47518696  1 0.681033
  C  C157  1  0.00116711  0.21426599  0.24528913  1 -0.167431
  C  C158  1  0.74522711  0.21429140  0.47432705  1 -0.170095
  C  C159  1  0.00131029  0.16292626  0.30685973  1 0.67415
  C  C160  1  0.69329678  0.33650717  0.47518538  1 0.681162
  C  C161  1  0.49883504  0.28573138  0.24529381  1 -0.167326
  C  C162  1  0.75476857  0.28570213  0.47432679  1 -0.170137
  C  C163  1  0.49868907  0.33707657  0.30685999  1 0.674177
  C  C164  1  0.80670374  0.33650618  0.02481342  1 0.680949
  C  C165  1  0.00116744  0.28573293  0.25471211  1 -0.167434
  C  C166  1  0.74522884  0.28570557  0.02567293  1 -0.17007
  C  C167  1  0.00131180  0.33707372  0.19314235  1 0.674244
  O  O168  1  0.05659527  0.55684403  0.92228890  1 -0.593566
  O  O169  1  0.97420538  0.29106419  0.90312746  1 -0.594534
  O  O170  1  0.79069676  0.50862637  0.90319928  1 -0.572059
  O  O171  1  0.87008459  0.49464053  0.81180720  1 -0.578256
  O  O172  1  0.97692012  0.37016715  0.81090917  1 -0.601533
  O  O173  1  0.44341172  0.94317371  0.92226881  1 -0.593517
  O  O174  1  0.52579328  0.20893604  0.90312719  1 -0.594551
  O  O175  1  0.70930661  0.99137164  0.90319653  1 -0.572016
  O  O176  1  0.62991615  0.00535845  0.81180617  1 -0.578251
  O  O177  1  0.52308081  0.12983446  0.81090695  1 -0.601508
  O  O178  1  0.44340794  0.55681061  0.57773077  1 -0.593517
  O  O179  1  0.52579028  0.29106619  0.59687129  1 -0.594478
  O  O180  1  0.70931705  0.50863189  0.59680784  1 -0.571989
  O  O181  1  0.62991840  0.49463988  0.68819238  1 -0.578298
  O  O182  1  0.52308050  0.37016442  0.68909371  1 -0.601512
  O  O183  1  0.05659023  0.94318269  0.57773489  1 -0.593511
  O  O184  1  0.97420756  0.20893706  0.59687424  1 -0.594484
  O  O185  1  0.79069159  0.99137035  0.59680377  1 -0.572082
  O  O186  1  0.87008375  0.00536194  0.68819195  1 -0.578348
  O  O187  1  0.97691789  0.12983491  0.68909181  1 -0.601506
  O  O188  1  0.92225102  0.05658594  0.55680229  1 -0.593405
  O  O189  1  0.90312604  0.97420859  0.29106758  1 -0.594475
  O  O190  1  0.90319347  0.79069219  0.50862572  1 -0.57206
  O  O191  1  0.81180062  0.87008063  0.49464492  1 -0.578363
  O  O192  1  0.81090362  0.97691864  0.37016425  1 -0.601604
  O  O193  1  0.92227051  0.44341114  0.94317352  1 -0.593423
  O  O194  1  0.90312644  0.52579111  0.20893426  1 -0.594536
  O  O195  1  0.90319367  0.70930336  0.99137486  1 -0.571974
  O  O196  1  0.81179932  0.62991849  0.00535641  1 -0.578219
  O  O197  1  0.81090398  0.52308173  0.12983700  1 -0.601459
  O  O198  1  0.57777145  0.44341465  0.55683134  1 -0.593612
  O  O199  1  0.59687386  0.52579581  0.29106109  1 -0.594589
  O  O200  1  0.59680190  0.70929865  0.50861776  1 -0.571907
  O  O201  1  0.68819940  0.62991623  0.49464590  1 -0.578221
  O  O202  1  0.68909267  0.52307777  0.37016323  1 -0.601575
  O  O203  1  0.57774314  0.05658769  0.94318582  1 -0.593501
  O  O204  1  0.59687298  0.97420760  0.20893440  1 -0.594473
  O  O205  1  0.59680481  0.79069193  0.99137415  1 -0.572072
  O  O206  1  0.68819533  0.87008247  0.00535751  1 -0.578295
  O  O207  1  0.68909388  0.97691940  0.12983547  1 -0.601525
  O  O208  1  0.55682744  0.92225398  0.05658630  1 -0.593538
  O  O209  1  0.29106511  0.90312621  0.97420529  1 -0.594524
  O  O210  1  0.50862391  0.90319574  0.79069728  1 -0.571942
  O  O211  1  0.49464484  0.81180288  0.87008438  1 -0.578245
  O  O212  1  0.37016388  0.81090530  0.97692024  1 -0.60153
  O  O213  1  0.94317245  0.92225239  0.44341023  1 -0.593631
  O  O214  1  0.20893554  0.90312710  0.52579485  1 -0.594527
  O  O215  1  0.99137443  0.90319863  0.70930555  1 -0.571951
  O  O216  1  0.00535591  0.81180661  0.62991549  1 -0.578257
  O  O217  1  0.12983347  0.81090747  0.52307903  1 -0.601497
  O  O218  1  0.55683728  0.57771240  0.44341358  1 -0.593268
  O  O219  1  0.29106668  0.59687455  0.52579501  1 -0.5945
  O  O220  1  0.50862846  0.59680223  0.70929912  1 -0.571987
  O  O221  1  0.49464381  0.68819558  0.62991484  1 -0.578245
  O  O222  1  0.37016562  0.68909600  0.52308234  1 -0.601557
  O  O223  1  0.94315261  0.57773637  0.05658894  1 -0.593531
  O  O224  1  0.20893598  0.59687297  0.97420431  1 -0.594518
  O  O225  1  0.99137756  0.59680372  0.79069935  1 -0.571979
  O  O226  1  0.00535157  0.68820081  0.87008319  1 -0.578247
  O  O227  1  0.12983633  0.68909482  0.97692169  1 -0.601524
  O  O228  1  0.94341826  0.44321156  0.07776122  1 -0.593447
  O  O229  1  0.02579118  0.70893361  0.09687174  1 -0.594563
  O  O230  1  0.20931390  0.49136793  0.09680167  1 -0.571986
  O  O231  1  0.12991580  0.50536395  0.18818419  1 -0.578393
  O  O232  1  0.02308272  0.62983248  0.18908971  1 -0.601651
  O  O233  1  0.55658235  0.05680340  0.07775577  1 -0.593457
  O  O234  1  0.47420809  0.79106392  0.09687402  1 -0.594577
  O  O235  1  0.29068866  0.00862961  0.09680267  1 -0.572061
  O  O236  1  0.37008284  0.99463802  0.18818913  1 -0.578419
  O  O237  1  0.47691721  0.87016597  0.18909256  1 -0.6016
  O  O238  1  0.55657997  0.44324474  0.42223455  1 -0.593253
  O  O239  1  0.47421436  0.70892789  0.40312744  1 -0.594544
  O  O240  1  0.29068783  0.49137374  0.40319583  1 -0.57194
  O  O241  1  0.37007701  0.50536213  0.31180452  1 -0.578188
  O  O242  1  0.47691596  0.62983553  0.31090235  1 -0.60167
  O  O243  1  0.94341782  0.05681116  0.42225372  1 -0.593416
  O  O244  1  0.02579095  0.79106478  0.40312620  1 -0.594501
  O  O245  1  0.20931126  0.00863060  0.40319663  1 -0.57196
  O  O246  1  0.12991749  0.99463781  0.31180942  1 -0.578249
  O  O247  1  0.02308400  0.87016464  0.31090596  1 -0.601511
  O  O248  1  0.07776873  0.94342028  0.44320430  1 -0.593441
  O  O249  1  0.09687351  0.02579086  0.70893364  1 -0.59453
  O  O250  1  0.09680627  0.20931333  0.49137381  1 -0.572012
  O  O251  1  0.18819403  0.12991889  0.50535988  1 -0.578321
  O  O252  1  0.18909395  0.02308279  0.62983620  1 -0.601539
  O  O253  1  0.07778294  0.55657638  0.05677080  1 -0.593397
  O  O254  1  0.09687408  0.47421180  0.79106777  1 -0.594474
  O  O255  1  0.09680503  0.29068473  0.00863011  1 -0.572064
  O  O256  1  0.18818952  0.37008002  0.99463765  1 -0.578283
  O  O257  1  0.18909361  0.47691538  0.87016470  1 -0.601503
  O  O258  1  0.42222225  0.55657479  0.44319038  1 -0.593343
  O  O259  1  0.40312535  0.47420704  0.70892995  1 -0.594492
  O  O260  1  0.40319933  0.29069704  0.49137503  1 -0.571963
  O  O261  1  0.31180248  0.37008112  0.50535048  1 -0.578279
  O  O262  1  0.31090217  0.47692091  0.62983659  1 -0.601653
  O  O263  1  0.42223524  0.94341952  0.05678884  1 -0.593409
  O  O264  1  0.40312646  0.02578975  0.79106818  1 -0.594476
  O  O265  1  0.40319576  0.20931112  0.00862771  1 -0.572001
  O  O266  1  0.31180766  0.12991952  0.99464073  1 -0.578355
  O  O267  1  0.31090549  0.02308264  0.87016433  1 -0.601594
  O  O268  1  0.44319237  0.07776721  0.94341935  1 -0.593476
  O  O269  1  0.70893400  0.09687415  0.02579321  1 -0.594547
  O  O270  1  0.49137335  0.09680129  0.20930867  1 -0.572026
  O  O271  1  0.50535764  0.18819215  0.12991951  1 -0.578301
  O  O272  1  0.62983556  0.18909313  0.02308184  1 -0.601538
  O  O273  1  0.05681403  0.07776377  0.55657983  1 -0.593462
  O  O274  1  0.79106676  0.09687148  0.47420721  1 -0.594546
  O  O275  1  0.00862400  0.09680125  0.29069408  1 -0.572017
  O  O276  1  0.99464248  0.18819351  0.37008287  1 -0.578305
  O  O277  1  0.87016342  0.18909363  0.47691892  1 -0.601578
  O  O278  1  0.44317772  0.42224963  0.55659122  1 -0.593669
  O  O279  1  0.70894393  0.40312421  0.47420410  1 -0.594558
  O  O280  1  0.49136400  0.40319694  0.29068301  1 -0.5721
  O  O281  1  0.50536619  0.31182173  0.37008769  1 -0.57833
  O  O282  1  0.62983236  0.31091509  0.47691727  1 -0.601642
  O  O283  1  0.05678853  0.42220914  0.94342574  1 -0.593424
  O  O284  1  0.79106725  0.40312667  0.02579285  1 -0.594522
  O  O285  1  0.00862709  0.40319779  0.20931093  1 -0.572043
  O  O286  1  0.99464300  0.31180867  0.12991874  1 -0.578383
  O  O287  1  0.87016375  0.31090714  0.02308189  1 -0.601547
  O  O288  1  0.93930381  0.56069639  0.93930122  1 -0.447063
  O  O289  1  0.56069625  0.93930245  0.93930129  1 -0.447072
  O  O290  1  0.56069504  0.56070295  0.56069460  1 -0.447055
  O  O291  1  0.93930371  0.93930388  0.56069771  1 -0.447154
  O  O292  1  0.06069835  0.43929972  0.06070208  1 -0.447082
  O  O293  1  0.43930097  0.06069934  0.06070123  1 -0.447077
  O  O294  1  0.43930560  0.43930090  0.43929772  1 -0.447084
  O  O295  1  0.06069970  0.06070129  0.43929849  1 -0.44704
