# generated using pymatgen
data_Cu4H24C16N12O
_symmetry_space_group_name_H-M   'P 1'
_cell_length_a   10.86701700
_cell_length_b   20.03157800
_cell_length_c   11.33766418
_cell_angle_alpha   90.00000000
_cell_angle_beta   96.43336901
_cell_angle_gamma   90.00000000
_symmetry_Int_Tables_number   1
_chemical_formula_structural   Cu4H24C16N12O
_chemical_formula_sum   'Cu8 H48 C32 N24 O2'
_cell_volume   2452.48085280
_cell_formula_units_Z   2
loop_
 _symmetry_equiv_pos_site_id
 _symmetry_equiv_pos_as_xyz
  1  'x, y, z'
loop_
 _atom_site_type_symbol
 _atom_site_label
 _atom_site_symmetry_multiplicity
 _atom_site_fract_x
 _atom_site_fract_y
 _atom_site_fract_z
 _atom_site_occupancy
 _atom_site_charge
  Cu  Cu0  1  0.00662163  0.35510960  0.97883668  1 0.24103
  Cu  Cu1  1  0.47726582  0.81270433  0.02175974  1 0.24103
  Cu  Cu2  1  0.96373653  0.61988899  0.00366013  1 0.24103
  Cu  Cu3  1  0.46913866  0.19417243  0.02915629  1 0.24103
  Cu  Cu4  1  0.02883995  0.44779735  0.50810651  1 0.391168
  Cu  Cu5  1  0.52224153  0.93703538  0.47561584  1 0.391168
  Cu  Cu6  1  0.00979659  0.56656738  0.51986127  1 0.391168
  Cu  Cu7  1  0.51745474  0.06523306  0.47863554  1 0.391168
  H  H8  1  0.89398839  0.28495484  0.19205292  1 0.087928
  H  H9  1  0.23830681  0.38003215  0.17422071  1 0.070947
  H  H10  1  0.21573084  0.39363762  0.45685199  1 0.061688
  H  H11  1  0.33433790  0.35043729  0.38893347  1 0.078458
  H  H12  1  0.30451667  0.30867478  0.59168596  1 0.078111
  H  H13  1  0.15017038  0.28593345  0.54138795  1 0.082404
  H  H14  1  0.42093863  0.91215048  0.21721263  1 0.087928
  H  H15  1  0.62098493  0.73322487  0.24046156  1 0.070947
  H  H16  1  0.72653626  0.86092990  0.50177559  1 0.061688
  H  H17  1  0.80685581  0.81825671  0.39512558  1 0.078458
  H  H18  1  0.82668465  0.76178815  0.59458323  1 0.078111
  H  H19  1  0.66380797  0.75413409  0.58461300  1 0.082404
  H  H20  1  0.13701904  0.39360830  0.75747874  1 0.087928
  H  H21  1  0.75901825  0.36310363  0.79783550  1 0.070947
  H  H22  1  0.77754558  0.43160950  0.49395964  1 0.061688
  H  H23  1  0.67120109  0.39571114  0.58453922  1 0.078458
  H  H24  1  0.66846078  0.33463987  0.39407917  1 0.078111
  H  H25  1  0.83023419  0.31915024  0.42170256  1 0.082404
  H  H26  1  0.61709073  0.76214569  0.81480521  1 0.087928
  H  H27  1  0.26154119  0.84729840  0.80926204  1 0.070947
  H  H28  1  0.32376535  0.87395791  0.52756488  1 0.061688
  H  H29  1  0.19531880  0.83371054  0.58451845  1 0.078458
  H  H30  1  0.23584607  0.78777459  0.38948506  1 0.078111
  H  H31  1  0.38923764  0.76653701  0.44664214  1 0.082404
  H  H32  1  0.10041111  0.58483455  0.78318381  1 0.087928
  H  H33  1  0.73836055  0.65107995  0.81433653  1 0.070947
  H  H34  1  0.75381126  0.58001246  0.51231941  1 0.061688
  H  H35  1  0.65205679  0.62890740  0.59105238  1 0.078458
  H  H36  1  0.67402811  0.68072515  0.39970914  1 0.078111
  H  H37  1  0.83762026  0.68314996  0.42830953  1 0.082404
  H  H38  1  0.61463656  0.24108784  0.82073819  1 0.087928
  H  H39  1  0.25784437  0.15750426  0.81695055  1 0.070947
  H  H40  1  0.33262002  0.12232541  0.53742715  1 0.061688
  H  H41  1  0.19916380  0.15864059  0.59225888  1 0.078458
  H  H42  1  0.23124498  0.20492947  0.39588870  1 0.078111
  H  H43  1  0.38454684  0.22871013  0.44755598  1 0.082404
  H  H44  1  0.91796109  0.73508067  0.18071519  1 0.087928
  H  H45  1  0.14753354  0.56468505  0.22722087  1 0.070947
  H  H46  1  0.22809652  0.59918233  0.45456060  1 0.061688
  H  H47  1  0.33028516  0.64807445  0.37541563  1 0.078458
  H  H48  1  0.31057765  0.68545180  0.58658543  1 0.078111
  H  H49  1  0.15548271  0.70845583  0.54117528  1 0.082404
  H  H50  1  0.42670093  0.08811849  0.21760004  1 0.087928
  H  H51  1  0.65079842  0.25703227  0.24088242  1 0.070947
  H  H52  1  0.70379995  0.15399619  0.51840065  1 0.061688
  H  H53  1  0.78586828  0.19096054  0.40706424  1 0.078458
  H  H54  1  0.79873759  0.25352301  0.60243799  1 0.078111
  H  H55  1  0.63673987  0.26686151  0.57836886  1 0.082404
  C  C56  1  0.98576762  0.30546602  0.21619366  1 0.114651
  C  C57  1  0.16030244  0.35391678  0.20407492  1 -0.000112
  C  C58  1  0.24260133  0.34502644  0.42032043  1 -0.071287
  C  C59  1  0.24377342  0.29059853  0.51398543  1 -0.166926
  C  C60  1  0.48537673  0.87315312  0.24944114  1 0.114651
  C  C61  1  0.60866700  0.78658427  0.25329906  1 -0.000112
  C  C62  1  0.72855689  0.81472624  0.44935930  1 -0.071287
  C  C63  1  0.74278618  0.75444157  0.53194700  1 -0.166926
  C  C64  1  0.03817307  0.38623310  0.73759925  1 0.114651
  C  C65  1  0.84524583  0.36919298  0.75995513  1 -0.000112
  C  C66  1  0.75772190  0.38648174  0.54477890  1 -0.071287
  C  C67  1  0.74482339  0.32483994  0.46453069  1 -0.166926
  C  C68  1  0.52552329  0.78112957  0.78433679  1 0.114651
  C  C69  1  0.34498866  0.82423123  0.78450431  1 -0.000112
  C  C70  1  0.28993154  0.82636388  0.56139510  1 -0.071287
  C  C71  1  0.29389351  0.77114490  0.46959009  1 -0.166926
  C  C72  1  0.00538459  0.60107486  0.76183371  1 0.114651
  C  C73  1  0.81136356  0.62353469  0.77754644  1 -0.000112
  C  C74  1  0.74306268  0.62870314  0.55683676  1 -0.071287
  C  C75  1  0.75122501  0.68683380  0.47056789  1 -0.166926
  C  C76  1  0.52359709  0.22131731  0.79066338  1 0.114651
  C  C77  1  0.34254934  0.17883956  0.79162928  1 -0.000112
  C  C78  1  0.29262204  0.16916339  0.56867445  1 -0.071287
  C  C79  1  0.29075741  0.22332810  0.47404836  1 -0.166926
  C  C80  1  0.99086566  0.70068036  0.21428368  1 0.114651
  C  C81  1  0.10816599  0.61413595  0.23306836  1 -0.000112
  C  C82  1  0.24321401  0.64890493  0.41675056  1 -0.071287
  C  C83  1  0.24767505  0.70361374  0.51039870  1 -0.166926
  C  C84  1  0.48133389  0.13031467  0.25337159  1 0.114651
  C  C85  1  0.57416001  0.22799249  0.26954279  1 -0.000112
  C  C86  1  0.70611400  0.19749293  0.45936175  1 -0.071287
  C  C87  1  0.72056227  0.26139344  0.53310865  1 -0.166926
  N  N88  1  0.05278863  0.33761263  0.13780938  1 -0.297317
  N  N89  1  0.04381651  0.30117324  0.32491071  1 -0.236923
  N  N90  1  0.15529021  0.33126817  0.31572819  1 0.122901
  N  N91  1  0.51849189  0.82210100  0.18225580  1 -0.297317
  N  N92  1  0.54092933  0.87291720  0.36025149  1 -0.236923
  N  N93  1  0.61300749  0.81342586  0.36926578  1 0.122901
  N  N94  1  0.96089519  0.37219005  0.81990918  1 -0.297317
  N  N95  1  0.97931747  0.39298264  0.62707171  1 -0.236923
  N  N96  1  0.85468052  0.37988803  0.64178886  1 0.122901
  N  N97  1  0.44495409  0.80533378  0.85877562  1 -0.297317
  N  N98  1  0.48149256  0.78378846  0.67085427  1 -0.236923
  N  N99  1  0.36692330  0.81096887  0.67224808  1 0.122901
  N  N100  1  0.92457392  0.61020783  0.84216698  1 -0.297317
  N  N101  1  0.95594496  0.61024770  0.64903936  1 -0.236923
  N  N102  1  0.83453232  0.63328019  0.65957910  1 0.122901
  N  N103  1  0.44154349  0.19962426  0.86565664  1 -0.297317
  N  N104  1  0.48186713  0.21524799  0.67697702  1 -0.236923
  N  N105  1  0.36701827  0.18832789  0.67877789  1 0.122901
  N  N106  1  0.01372861  0.64090570  0.16099274  1 -0.297317
  N  N107  1  0.06684036  0.71223654  0.31152584  1 -0.236923
  N  N108  1  0.14151084  0.65747552  0.32098604  1 0.122901
  N  N109  1  0.50542180  0.18479596  0.19008119  1 -0.297317
  N  N110  1  0.53064714  0.13159034  0.36610469  1 -0.236923
  N  N111  1  0.59055553  0.19493279  0.38064719  1 0.122901
  O  O112  1  0.07340195  0.51338597  0.41229900  1 -0.962491
  O  O113  1  0.49381134  0.99993475  0.58020907  1 -0.962491
