# generated using pymatgen
data_AgH16(C7N)4
_symmetry_space_group_name_H-M   'P 1'
_cell_length_a   23.43921427
_cell_length_b   23.43921427
_cell_length_c   4.68182975
_cell_angle_alpha   90.00000000
_cell_angle_beta   90.00000000
_cell_angle_gamma   90.00000000
_symmetry_Int_Tables_number   1
_chemical_formula_structural   AgH16(C7N)4
_chemical_formula_sum   'Ag4 H64 C112 N16'
_cell_volume   2572.18212169
_cell_formula_units_Z   4
loop_
 _symmetry_equiv_pos_site_id
 _symmetry_equiv_pos_as_xyz
  1  'x, y, z'
loop_
 _atom_site_type_symbol
 _atom_site_label
 _atom_site_symmetry_multiplicity
 _atom_site_fract_x
 _atom_site_fract_y
 _atom_site_fract_z
 _atom_site_occupancy
 _atom_site_charge
  Ag  Ag0  1  -0.00000000  0.50000000  0.75000000  1 0.570099
  Ag  Ag1  1  0.50000000  -0.00000000  0.25000000  1 0.570099
  Ag  Ag2  1  0.50000000  0.50000000  0.00000000  1 0.570099
  Ag  Ag3  1  -0.00000000  -0.00000000  0.50000000  1 0.570099
  H  H4  1  0.87066392  0.62798229  0.96518349  1 0.103481
  H  H5  1  0.88378150  0.70113583  0.58870737  1 0.098786
  H  H6  1  0.05607670  0.73085359  0.87112792  1 0.098864
  H  H7  1  0.04145185  0.66296746  0.26612639  1 0.103668
  H  H8  1  0.37066392  0.12798229  0.46518349  1 0.103481
  H  H9  1  0.38378150  0.20113583  0.08870737  1 0.098786
  H  H10  1  0.55607670  0.23085359  0.37112792  1 0.098864
  H  H11  1  0.54145185  0.16296746  0.76612639  1 0.103668
  H  H12  1  0.12933608  0.37201771  0.96518349  1 0.103481
  H  H13  1  0.11621850  0.29886417  0.58870737  1 0.098786
  H  H14  1  0.94392330  0.26914641  0.87112792  1 0.098864
  H  H15  1  0.95854815  0.33703254  0.26612639  1 0.103668
  H  H16  1  0.62933608  0.87201771  0.46518349  1 0.103481
  H  H17  1  0.61621850  0.79886417  0.08870737  1 0.098786
  H  H18  1  0.44392330  0.76914641  0.37112792  1 0.098864
  H  H19  1  0.45854815  0.83703254  0.76612639  1 0.103668
  H  H20  1  0.62798229  0.12933608  0.03481651  1 0.103481
  H  H21  1  0.70113583  0.11621850  0.41129263  1 0.098786
  H  H22  1  0.73085359  0.94392330  0.12887208  1 0.098864
  H  H23  1  0.66296746  0.95854815  0.73387361  1 0.103668
  H  H24  1  0.12798229  0.62933608  0.53481651  1 0.103481
  H  H25  1  0.20113583  0.61621850  0.91129263  1 0.098786
  H  H26  1  0.23085359  0.44392330  0.62887208  1 0.098864
  H  H27  1  0.16296746  0.45854815  0.23387361  1 0.103668
  H  H28  1  0.37201771  0.87066392  0.03481651  1 0.103481
  H  H29  1  0.29886417  0.88378150  0.41129263  1 0.098786
  H  H30  1  0.26914641  0.05607670  0.12887208  1 0.098864
  H  H31  1  0.33703254  0.04145185  0.73387361  1 0.103668
  H  H32  1  0.87201771  0.37066392  0.53481651  1 0.103481
  H  H33  1  0.79886417  0.38378150  0.91129263  1 0.098786
  H  H34  1  0.76914641  0.55607670  0.62887208  1 0.098864
  H  H35  1  0.83703254  0.54145185  0.23387361  1 0.103668
  H  H36  1  0.62933608  0.62798229  0.78481651  1 0.103481
  H  H37  1  0.61621850  0.70113583  0.16129263  1 0.098785
  H  H38  1  0.44392330  0.73085359  0.87887208  1 0.098865
  H  H39  1  0.45854815  0.66296746  0.48387361  1 0.103668
  H  H40  1  0.12933608  0.12798229  0.28481651  1 0.103481
  H  H41  1  0.11621850  0.20113583  0.66129263  1 0.098785
  H  H42  1  0.94392330  0.23085359  0.37887208  1 0.098865
  H  H43  1  0.95854815  0.16296746  0.98387361  1 0.103668
  H  H44  1  0.37066392  0.37201771  0.78481651  1 0.103481
  H  H45  1  0.38378150  0.29886417  0.16129263  1 0.098785
  H  H46  1  0.55607670  0.26914641  0.87887208  1 0.098865
  H  H47  1  0.54145185  0.33703254  0.48387361  1 0.103668
  H  H48  1  0.87066392  0.87201771  0.28481651  1 0.103481
  H  H49  1  0.88378150  0.79886417  0.66129263  1 0.098785
  H  H50  1  0.05607670  0.76914641  0.37887208  1 0.098865
  H  H51  1  0.04145185  0.83703254  0.98387361  1 0.103668
  H  H52  1  0.87201771  0.12933608  0.71518349  1 0.103481
  H  H53  1  0.79886417  0.11621850  0.33870737  1 0.098785
  H  H54  1  0.76914641  0.94392330  0.62112792  1 0.098865
  H  H55  1  0.83703254  0.95854815  0.01612639  1 0.103668
  H  H56  1  0.37201771  0.62933608  0.21518349  1 0.103481
  H  H57  1  0.29886417  0.61621850  0.83870737  1 0.098785
  H  H58  1  0.26914641  0.44392330  0.12112792  1 0.098865
  H  H59  1  0.33703254  0.45854815  0.51612639  1 0.103668
  H  H60  1  0.12798229  0.87066392  0.71518349  1 0.103481
  H  H61  1  0.20113583  0.88378150  0.33870737  1 0.098785
  H  H62  1  0.23085359  0.05607670  0.62112792  1 0.098865
  H  H63  1  0.16296746  0.04145185  0.01612639  1 0.103668
  H  H64  1  0.62798229  0.37066392  0.21518349  1 0.103481
  H  H65  1  0.70113583  0.38378150  0.83870737  1 0.098785
  H  H66  1  0.73085359  0.55607670  0.12112792  1 0.098865
  H  H67  1  0.66296746  0.54145185  0.51612639  1 0.103668
  C  C68  1  0.95455664  0.64157958  0.14782670  1 0.029288
  C  C69  1  0.91057174  0.65157769  0.94925751  1 -0.100653
  C  C70  1  0.91761812  0.69326507  0.74356436  1 -0.148705
  C  C71  1  0.96907816  0.72509026  0.71745485  1 0.069583
  C  C72  1  0.01518770  0.70939642  0.89408078  1 -0.139751
  C  C73  1  0.00770709  0.67057393  0.11122430  1 -0.09689
  C  C74  1  0.94902335  0.60299273  0.37330256  1 0.245922
  C  C75  1  0.45455664  0.14157958  0.64782670  1 0.029288
  C  C76  1  0.41057174  0.15157769  0.44925751  1 -0.100653
  C  C77  1  0.41761812  0.19326507  0.24356436  1 -0.148705
  C  C78  1  0.46907816  0.22509026  0.21745485  1 0.069583
  C  C79  1  0.51518770  0.20939642  0.39408078  1 -0.139751
  C  C80  1  0.50770709  0.17057393  0.61122430  1 -0.09689
  C  C81  1  0.44902335  0.10299273  0.87330256  1 0.245922
  C  C82  1  0.04544336  0.35842042  0.14782670  1 0.029288
  C  C83  1  0.08942826  0.34842231  0.94925751  1 -0.100653
  C  C84  1  0.08238188  0.30673493  0.74356436  1 -0.148705
  C  C85  1  0.03092184  0.27490974  0.71745485  1 0.069583
  C  C86  1  0.98481230  0.29060358  0.89408078  1 -0.139751
  C  C87  1  0.99229291  0.32942607  0.11122430  1 -0.09689
  C  C88  1  0.05097665  0.39700727  0.37330256  1 0.245922
  C  C89  1  0.54544336  0.85842042  0.64782670  1 0.029288
  C  C90  1  0.58942826  0.84842231  0.44925751  1 -0.100653
  C  C91  1  0.58238188  0.80673493  0.24356436  1 -0.148705
  C  C92  1  0.53092184  0.77490974  0.21745485  1 0.069583
  C  C93  1  0.48481230  0.79060358  0.39408078  1 -0.139751
  C  C94  1  0.49229291  0.82942607  0.61122430  1 -0.09689
  C  C95  1  0.55097665  0.89700727  0.87330256  1 0.245922
  C  C96  1  0.64157958  0.04544336  0.85217330  1 0.029288
  C  C97  1  0.65157769  0.08942826  0.05074249  1 -0.100653
  C  C98  1  0.69326507  0.08238188  0.25643564  1 -0.148705
  C  C99  1  0.72509026  0.03092184  0.28254515  1 0.069583
  C  C100  1  0.70939642  0.98481230  0.10591922  1 -0.139751
  C  C101  1  0.67057393  0.99229291  0.88877570  1 -0.09689
  C  C102  1  0.60299273  0.05097665  0.62669744  1 0.245922
  C  C103  1  0.14157958  0.54544336  0.35217330  1 0.029288
  C  C104  1  0.15157769  0.58942826  0.55074249  1 -0.100653
  C  C105  1  0.19326507  0.58238188  0.75643564  1 -0.148705
  C  C106  1  0.22509026  0.53092184  0.78254515  1 0.069583
  C  C107  1  0.20939642  0.48481230  0.60591922  1 -0.139751
  C  C108  1  0.17057393  0.49229291  0.38877570  1 -0.09689
  C  C109  1  0.10299273  0.55097665  0.12669744  1 0.245922
  C  C110  1  0.35842042  0.95455664  0.85217330  1 0.029288
  C  C111  1  0.34842231  0.91057174  0.05074249  1 -0.100653
  C  C112  1  0.30673493  0.91761812  0.25643564  1 -0.148705
  C  C113  1  0.27490974  0.96907816  0.28254515  1 0.069583
  C  C114  1  0.29060358  0.01518770  0.10591922  1 -0.139751
  C  C115  1  0.32942607  0.00770709  0.88877570  1 -0.09689
  C  C116  1  0.39700727  0.94902335  0.62669744  1 0.245922
  C  C117  1  0.85842042  0.45455664  0.35217330  1 0.029288
  C  C118  1  0.84842231  0.41057174  0.55074249  1 -0.100653
  C  C119  1  0.80673493  0.41761812  0.75643564  1 -0.148705
  C  C120  1  0.77490974  0.46907816  0.78254515  1 0.069583
  C  C121  1  0.79060358  0.51518770  0.60591922  1 -0.139751
  C  C122  1  0.82942607  0.50770709  0.38877570  1 -0.09689
  C  C123  1  0.89700727  0.44902335  0.12669744  1 0.245922
  C  C124  1  0.54544336  0.64157958  0.60217330  1 0.029288
  C  C125  1  0.58942826  0.65157769  0.80074249  1 -0.100653
  C  C126  1  0.58238188  0.69326507  0.00643564  1 -0.148705
  C  C127  1  0.53092184  0.72509026  0.03254515  1 0.069583
  C  C128  1  0.48481230  0.70939642  0.85591922  1 -0.139751
  C  C129  1  0.49229291  0.67057393  0.63877570  1 -0.09689
  C  C130  1  0.55097665  0.60299273  0.37669744  1 0.245922
  C  C131  1  0.04544336  0.14157958  0.10217330  1 0.029288
  C  C132  1  0.08942826  0.15157769  0.30074249  1 -0.100653
  C  C133  1  0.08238188  0.19326507  0.50643564  1 -0.148705
  C  C134  1  0.03092184  0.22509026  0.53254515  1 0.069583
  C  C135  1  0.98481230  0.20939642  0.35591922  1 -0.139751
  C  C136  1  0.99229291  0.17057393  0.13877570  1 -0.09689
  C  C137  1  0.05097665  0.10299273  0.87669744  1 0.245922
  C  C138  1  0.45455664  0.35842042  0.60217330  1 0.029288
  C  C139  1  0.41057174  0.34842231  0.80074249  1 -0.100653
  C  C140  1  0.41761812  0.30673493  0.00643564  1 -0.148705
  C  C141  1  0.46907816  0.27490974  0.03254515  1 0.069583
  C  C142  1  0.51518770  0.29060358  0.85591922  1 -0.139751
  C  C143  1  0.50770709  0.32942607  0.63877570  1 -0.09689
  C  C144  1  0.44902335  0.39700727  0.37669744  1 0.245922
  C  C145  1  0.95455664  0.85842042  0.10217330  1 0.029288
  C  C146  1  0.91057174  0.84842231  0.30074249  1 -0.100653
  C  C147  1  0.91761812  0.80673493  0.50643564  1 -0.148705
  C  C148  1  0.96907816  0.77490974  0.53254515  1 0.069583
  C  C149  1  0.01518770  0.79060358  0.35591922  1 -0.139751
  C  C150  1  0.00770709  0.82942607  0.13877570  1 -0.09689
  C  C151  1  0.94902335  0.89700727  0.87669744  1 0.245922
  C  C152  1  0.85842042  0.04544336  0.89782670  1 0.029288
  C  C153  1  0.84842231  0.08942826  0.69925751  1 -0.100653
  C  C154  1  0.80673493  0.08238188  0.49356436  1 -0.148705
  C  C155  1  0.77490974  0.03092184  0.46745485  1 0.069583
  C  C156  1  0.79060358  0.98481230  0.64408078  1 -0.139752
  C  C157  1  0.82942607  0.99229291  0.86122430  1 -0.09689
  C  C158  1  0.89700727  0.05097665  0.12330256  1 0.245922
  C  C159  1  0.35842042  0.54544336  0.39782670  1 0.029288
  C  C160  1  0.34842231  0.58942826  0.19925751  1 -0.100653
  C  C161  1  0.30673493  0.58238188  0.99356436  1 -0.148705
  C  C162  1  0.27490974  0.53092184  0.96745485  1 0.069583
  C  C163  1  0.29060358  0.48481230  0.14408078  1 -0.139752
  C  C164  1  0.32942607  0.49229291  0.36122430  1 -0.09689
  C  C165  1  0.39700727  0.55097665  0.62330256  1 0.245922
  C  C166  1  0.14157958  0.95455664  0.89782670  1 0.029288
  C  C167  1  0.15157769  0.91057174  0.69925751  1 -0.100653
  C  C168  1  0.19326507  0.91761812  0.49356436  1 -0.148705
  C  C169  1  0.22509026  0.96907816  0.46745485  1 0.069583
  C  C170  1  0.20939642  0.01518770  0.64408078  1 -0.139752
  C  C171  1  0.17057393  0.00770709  0.86122430  1 -0.09689
  C  C172  1  0.10299273  0.94902335  0.12330256  1 0.245922
  C  C173  1  0.64157958  0.45455664  0.39782670  1 0.029288
  C  C174  1  0.65157769  0.41057174  0.19925751  1 -0.100653
  C  C175  1  0.69326507  0.41761812  0.99356436  1 -0.148705
  C  C176  1  0.72509026  0.46907816  0.96745485  1 0.069583
  C  C177  1  0.70939642  0.51518770  0.14408078  1 -0.139752
  C  C178  1  0.67057393  0.50770709  0.36122430  1 -0.09689
  C  C179  1  0.60299273  0.44902335  0.62330256  1 0.245922
  N  N180  1  0.94719587  0.56966433  0.56088256  1 -0.406118
  N  N181  1  0.44719587  0.06966433  0.06088256  1 -0.406118
  N  N182  1  0.05280413  0.43033567  0.56088256  1 -0.406118
  N  N183  1  0.55280413  0.93033567  0.06088256  1 -0.406118
  N  N184  1  0.56966433  0.05280413  0.43911744  1 -0.406118
  N  N185  1  0.06966433  0.55280413  0.93911744  1 -0.406118
  N  N186  1  0.43033567  0.94719587  0.43911744  1 -0.406118
  N  N187  1  0.93033567  0.44719587  0.93911744  1 -0.406118
  N  N188  1  0.55280413  0.56966433  0.18911744  1 -0.406118
  N  N189  1  0.05280413  0.06966433  0.68911744  1 -0.406118
  N  N190  1  0.44719587  0.43033567  0.18911744  1 -0.406118
  N  N191  1  0.94719587  0.93033567  0.68911744  1 -0.406118
  N  N192  1  0.93033567  0.05280413  0.31088256  1 -0.406118
  N  N193  1  0.43033567  0.55280413  0.81088256  1 -0.406118
  N  N194  1  0.06966433  0.94719587  0.31088256  1 -0.406118
  N  N195  1  0.56966433  0.44719587  0.81088256  1 -0.406118
