# generated using pymatgen
data_Cu2H15C27NO8
_symmetry_space_group_name_H-M   'P 1'
_cell_length_a   26.21190622
_cell_length_b   26.21169267
_cell_length_c   18.59532438
_cell_angle_alpha   89.99592831
_cell_angle_beta   90.00027100
_cell_angle_gamma   89.99964573
_symmetry_Int_Tables_number   1
_chemical_formula_structural   Cu2H15C27NO8
_chemical_formula_sum   'Cu16 H120 C216 N8 O64'
_cell_volume   12776.07434238
_cell_formula_units_Z   8
loop_
 _symmetry_equiv_pos_site_id
 _symmetry_equiv_pos_as_xyz
  1  'x, y, z'
loop_
 _atom_site_type_symbol
 _atom_site_label
 _atom_site_symmetry_multiplicity
 _atom_site_fract_x
 _atom_site_fract_y
 _atom_site_fract_z
 _atom_site_occupancy
 _atom_site_charge
  Cu  Cu0  1  0.78311541  0.77783516  0.79047619  1 0.823778
  Cu  Cu1  1  0.70081110  0.72816786  0.28703058  1 0.792017
  Cu  Cu2  1  0.70209272  0.78430892  0.85465791  1 0.828069
  Cu  Cu3  1  0.78657340  0.73347448  0.35440059  1 0.781845
  Cu  Cu4  1  0.21689715  0.22217277  0.29047250  1 0.823776
  Cu  Cu5  1  0.29913729  0.27183453  0.78706716  1 0.79176
  Cu  Cu6  1  0.29789053  0.21569207  0.35465081  1 0.828056
  Cu  Cu7  1  0.21345819  0.26652371  0.85439343  1 0.781758
  Cu  Cu8  1  0.22216865  0.78311058  0.04044914  1 0.823886
  Cu  Cu9  1  0.27184376  0.70083514  0.53703836  1 0.792478
  Cu  Cu10  1  0.21569979  0.70210569  0.10465345  1 0.828047
  Cu  Cu11  1  0.26652036  0.78654988  0.60438751  1 0.78198
  Cu  Cu12  1  0.77783599  0.21687623  0.54045207  1 0.823948
  Cu  Cu13  1  0.72815299  0.29920435  0.03700723  1 0.792038
  Cu  Cu14  1  0.78430609  0.29790151  0.60465094  1 0.82795
  Cu  Cu15  1  0.73347702  0.21341440  0.10441524  1 0.782195
  H  H16  1  0.73625635  0.75618714  0.57194122  1 0.131315
  H  H17  1  0.59435118  0.77032435  0.68609130  1 0.115374
  H  H18  1  0.59509771  0.73570275  0.45870613  1 0.115996
  H  H19  1  0.52262880  0.81256574  0.64944222  1 0.104194
  H  H20  1  0.42776212  0.80927709  0.65001558  1 0.106485
  H  H21  1  0.43099513  0.68666011  0.49717138  1 0.107795
  H  H22  1  0.52595009  0.68902965  0.49650826  1 0.103123
  H  H23  1  0.81860673  0.89689003  0.31346718  1 0.11141
  H  H24  1  0.81753532  0.98725561  0.27303526  1 0.10157
  H  H25  1  0.65951656  0.97067267  0.21192405  1 0.099518
  H  H26  1  0.66110346  0.88125136  0.25520287  1 0.107786
  H  H27  1  0.73550976  0.10582925  0.93352080  1 0.115611
  H  H28  1  0.81051980  0.93853522  0.74343861  1 0.114599
  H  H29  1  0.81337513  0.03350134  0.74369647  1 0.104056
  H  H30  1  0.68931132  0.03651960  0.89591079  1 0.104552
  H  H31  1  0.68762540  0.94164990  0.89601032  1 0.114535
  H  H32  1  0.76996525  0.10553528  0.70602271  1 0.116313
  H  H33  1  0.75718289  0.24715591  0.82112878  1 0.13041
  H  H34  1  0.81250310  0.61511574  0.82290813  1 0.118154
  H  H35  1  0.81137405  0.52486233  0.86122889  1 0.100715
  H  H36  1  0.65603030  0.54403918  0.93473042  1 0.099731
  H  H37  1  0.65791254  0.63335468  0.89408556  1 0.119303
  H  H38  1  0.65908085  0.14097415  0.18354535  1 0.093238
  H  H39  1  0.65742599  0.05325101  0.23536474  1 0.113451
  H  H40  1  0.81720294  0.04091688  0.18027985  1 0.113562
  H  H41  1  0.81219243  0.13016358  0.13416328  1 0.092528
  H  H42  1  0.65104470  0.38280344  0.99485182  1 0.092093
  H  H43  1  0.64990657  0.47050301  0.94596666  1 0.110002
  H  H44  1  0.81326007  0.45730796  0.91622054  1 0.111549
  H  H45  1  0.80610123  0.36908777  0.96302595  1 0.088791
  H  H46  1  0.26375637  0.24381508  0.07193865  1 0.131297
  H  H47  1  0.40566009  0.22967759  0.18608056  1 0.115382
  H  H48  1  0.40492402  0.26430127  0.95869855  1 0.115885
  H  H49  1  0.47736995  0.18742982  0.14945309  1 0.10422
  H  H50  1  0.57223893  0.19071886  0.15002017  1 0.106455
  H  H51  1  0.56901827  0.31332922  0.99717321  1 0.107749
  H  H52  1  0.47405774  0.31097364  0.99649604  1 0.102995
  H  H53  1  0.18138830  0.10313913  0.81348186  1 0.111415
  H  H54  1  0.18246748  0.01277896  0.77304851  1 0.101354
  H  H55  1  0.34047272  0.02936975  0.71194156  1 0.099789
  H  H56  1  0.33889097  0.11878453  0.75522081  1 0.107841
  H  H57  1  0.26449604  0.89418685  0.43350352  1 0.115652
  H  H58  1  0.18947420  0.06148783  0.24342966  1 0.11464
  H  H59  1  0.18662368  0.96652168  0.24367468  1 0.10402
  H  H60  1  0.31069377  0.96349023  0.39588957  1 0.104425
  H  H61  1  0.31236430  0.05836333  0.39599189  1 0.114549
  H  H62  1  0.23003756  0.89448631  0.20601244  1 0.116355
  H  H63  1  0.24281745  0.75285807  0.32110764  1 0.130438
  H  H64  1  0.18749831  0.38486840  0.32289875  1 0.118138
  H  H65  1  0.18862329  0.47512039  0.36122093  1 0.100774
  H  H66  1  0.34396954  0.45593204  0.43472378  1 0.09956
  H  H67  1  0.34208273  0.36662020  0.39406921  1 0.119239
  H  H68  1  0.34092517  0.85904673  0.68355890  1 0.093208
  H  H69  1  0.34256426  0.94676571  0.73537075  1 0.113334
  H  H70  1  0.18280841  0.95910014  0.68028648  1 0.113595
  H  H71  1  0.18780938  0.86985748  0.63417395  1 0.092485
  H  H72  1  0.34895933  0.61718118  0.49483693  1 0.092363
  H  H73  1  0.35008712  0.52948743  0.44595608  1 0.109999
  H  H74  1  0.18675100  0.54268276  0.41622005  1 0.111422
  H  H75  1  0.19389850  0.63089985  0.46301742  1 0.088898
  H  H76  1  0.24382133  0.73623811  0.82193226  1 0.131187
  H  H77  1  0.22967082  0.59433524  0.93606912  1 0.115312
  H  H78  1  0.26430270  0.59506681  0.70869686  1 0.115955
  H  H79  1  0.18743244  0.52262338  0.89945677  1 0.104185
  H  H80  1  0.19070475  0.42775562  0.90001744  1 0.106436
  H  H81  1  0.31332279  0.43097547  0.74719198  1 0.107807
  H  H82  1  0.31096528  0.52593377  0.74651582  1 0.103095
  H  H83  1  0.10313151  0.81860767  0.56345867  1 0.111333
  H  H84  1  0.01276987  0.81752947  0.52304312  1 0.101318
  H  H85  1  0.02935359  0.65951580  0.46194404  1 0.099581
  H  H86  1  0.11876850  0.66109217  0.50521308  1 0.108029
  H  H87  1  0.89416948  0.73551594  0.18349780  1 0.11581
  H  H88  1  0.06147971  0.81054041  0.99343803  1 0.114711
  H  H89  1  0.96651481  0.81339044  0.99368039  1 0.104028
  H  H90  1  0.96348382  0.68931309  0.14588643  1 0.104487
  H  H91  1  0.05835441  0.68762399  0.14599361  1 0.114501
  H  H92  1  0.89448690  0.76996731  0.95599334  1 0.116231
  H  H93  1  0.75285620  0.75719002  0.07109137  1 0.130306
  H  H94  1  0.38487172  0.81251758  0.07288605  1 0.118033
  H  H95  1  0.47512185  0.81138640  0.11122029  1 0.100675
  H  H96  1  0.45593840  0.65603318  0.18470413  1 0.09953
  H  H97  1  0.36662528  0.65792307  0.14406507  1 0.119395
  H  H98  1  0.85903628  0.65907111  0.43355285  1 0.093193
  H  H99  1  0.94675260  0.65741885  0.48537177  1 0.113381
  H  H100  1  0.95908490  0.81718810  0.43030119  1 0.113751
  H  H101  1  0.86984740  0.81218680  0.38417536  1 0.092554
  H  H102  1  0.61718358  0.65103567  0.24480978  1 0.092045
  H  H103  1  0.52949122  0.64991241  0.19592030  1 0.109991
  H  H104  1  0.54267495  0.81325833  0.16622869  1 0.111505
  H  H105  1  0.63088879  0.80610908  0.21303744  1 0.091597
  H  H106  1  0.75618244  0.26374112  0.32191187  1 0.131253
  H  H107  1  0.77033259  0.40563591  0.43605892  1 0.115571
  H  H108  1  0.73570340  0.40490765  0.20867643  1 0.11592
  H  H109  1  0.81257133  0.47734474  0.39944115  1 0.104238
  H  H110  1  0.80928360  0.57221610  0.40000217  1 0.106596
  H  H111  1  0.68666665  0.56900469  0.24717311  1 0.107733
  H  H112  1  0.68903220  0.47404516  0.24648353  1 0.102998
  H  H113  1  0.89686110  0.18138881  0.06345724  1 0.111432
  H  H114  1  0.98722862  0.18246431  0.02303980  1 0.101429
  H  H115  1  0.97064342  0.34048602  0.96194111  1 0.099627
  H  H116  1  0.88122326  0.33889472  0.00522113  1 0.108064
  H  H117  1  0.10582499  0.26448309  0.68350466  1 0.11572
  H  H118  1  0.93852546  0.18946792  0.49344080  1 0.114776
  H  H119  1  0.03348777  0.18661700  0.49368427  1 0.103994
  H  H120  1  0.03651179  0.31068248  0.64589185  1 0.104585
  H  H121  1  0.94164214  0.31236514  0.64598759  1 0.11452
  H  H122  1  0.10551809  0.23003925  0.45601010  1 0.116348
  H  H123  1  0.24714606  0.24281338  0.57109678  1 0.130296
  H  H124  1  0.61513114  0.18748793  0.57289046  1 0.118032
  H  H125  1  0.52488037  0.18861434  0.61122626  1 0.100774
  H  H126  1  0.54407060  0.34395978  0.68471153  1 0.099584
  H  H127  1  0.63338329  0.34206784  0.64406760  1 0.119392
  H  H128  1  0.14094794  0.34092995  0.93356427  1 0.09329
  H  H129  1  0.05322294  0.34257746  0.98537592  1 0.113285
  H  H130  1  0.04089186  0.18281274  0.93031154  1 0.113677
  H  H131  1  0.13013558  0.18781619  0.88418715  1 0.092317
  H  H132  1  0.38282549  0.34895718  0.74481660  1 0.091922
  H  H133  1  0.47052051  0.35008738  0.69592699  1 0.10997
  H  H134  1  0.45733190  0.18674234  0.66623402  1 0.111342
  H  H135  1  0.36911478  0.19389314  0.71304355  1 0.09144
  C  C136  1  0.36680957  0.74573986  0.57348774  1 0.579239
  C  C137  1  0.69639210  0.73591468  0.44022514  1 0.581354
  C  C138  1  0.66809271  0.74453534  0.50900719  1 -0.022094
  C  C139  1  0.69477622  0.75533089  0.57220816  1 -0.091579
  C  C140  1  0.66768947  0.76502518  0.63549264  1 -0.028284
  C  C141  1  0.61436977  0.76376650  0.63559585  1 -0.122827
  C  C142  1  0.58725210  0.75272520  0.57251737  1 0.057308
  C  C143  1  0.61476718  0.74320249  0.50923648  1 -0.12276
  C  C144  1  0.69561444  0.77507340  0.70382961  1 0.584778
  C  C145  1  0.53099268  0.75103326  0.57291206  1 0.079371
  C  C146  1  0.50267952  0.78450281  0.61651327  1 -0.137752
  C  C147  1  0.44967442  0.78299668  0.61679182  1 -0.084698
  C  C148  1  0.42366119  0.74766537  0.57376171  1 -0.031744
  C  C149  1  0.45157550  0.71404813  0.53029792  1 -0.086154
  C  C150  1  0.50454280  0.71582291  0.52974309  1 -0.136847
  C  C151  1  0.74079028  0.82848060  0.30773518  1 0.576409
  C  C152  1  0.73992079  0.88359525  0.28703907  1 -0.01941
  C  C153  1  0.78387568  0.91374134  0.29176513  1 -0.083526
  C  C154  1  0.78309962  0.96415283  0.26825887  1 -0.129529
  C  C155  1  0.73838929  0.98578166  0.23943779  1 0.068204
  C  C156  1  0.69433761  0.95523879  0.23555935  1 -0.129675
  C  C157  1  0.69510020  0.90494941  0.25904673  1 -0.082466
  C  C158  1  0.73507830  0.20731476  0.95198156  1 0.578712
  C  C159  1  0.74446502  0.17889211  0.88348751  1 -0.023984
  C  C160  1  0.74321512  0.12556985  0.88310228  1 -0.12284
  C  C161  1  0.74674906  0.87776598  0.81995118  1 0.584081
  C  C162  1  0.74888466  0.93447834  0.81969339  1 -0.035486
  C  C163  1  0.78416219  0.96046423  0.77653794  1 -0.083119
  C  C164  1  0.78529608  0.01350532  0.77653512  1 -0.137625
  C  C165  1  0.75149820  0.04180859  0.81967614  1 0.078843
  C  C166  1  0.71641460  0.01526274  0.86299334  1 -0.138755
  C  C167  1  0.71501913  0.96229319  0.86295400  1 -0.082813
  C  C168  1  0.77571488  0.20708861  0.68914068  1 0.581311
  C  C169  1  0.76557159  0.17873949  0.75718929  1 -0.027109
  C  C170  1  0.76380011  0.12539946  0.75673568  1 -0.125279
  C  C171  1  0.75287049  0.09811823  0.81977610  1 0.059201
  C  C172  1  0.75593336  0.20567942  0.82059945  1 -0.091921
  C  C173  1  0.73634949  0.68472504  0.83646041  1 0.577375
  C  C174  1  0.73516847  0.62953272  0.85553952  1 -0.019087
  C  C175  1  0.77826676  0.59861981  0.84663460  1 -0.082797
  C  C176  1  0.77726430  0.54795641  0.86893090  1 -0.127351
  C  C177  1  0.73339136  0.52677190  0.90097897  1 0.067435
  C  C178  1  0.69043445  0.55849992  0.90909420  1 -0.128506
  C  C179  1  0.69111144  0.60894882  0.88670283  1 -0.081191
  C  C180  1  0.69341311  0.11745404  0.18475524  1 0.102619
  C  C181  1  0.69273401  0.06823526  0.21272034  1 -0.183264
  C  C182  1  0.73754100  0.03874691  0.21239137  1 0.108954
  C  C183  1  0.78138541  0.06186235  0.18366311  1 -0.182796
  C  C184  1  0.77883944  0.11141281  0.15721823  1 0.10276
  C  C185  1  0.68613435  0.40087689  0.97612777  1 0.098633
  C  C186  1  0.68610014  0.45030721  0.94916727  1 -0.181589
  C  C187  1  0.73194864  0.47337661  0.92686048  1 0.107998
  C  C188  1  0.77592496  0.44286079  0.93185233  1 -0.18066
  C  C189  1  0.77252538  0.39339819  0.95843758  1 0.103672
  C  C190  1  0.63315727  0.25425827  0.07348882  1 0.579779
  C  C191  1  0.30360530  0.26409152  0.94020050  1 0.581701
  C  C192  1  0.33191369  0.25546987  0.00898719  1 -0.02254
  C  C193  1  0.30523620  0.24467074  0.07219855  1 -0.091394
  C  C194  1  0.33231904  0.23497581  0.13548828  1 -0.028679
  C  C195  1  0.38563661  0.23623523  0.13559075  1 -0.122522
  C  C196  1  0.41275021  0.24727627  0.07250879  1 0.057036
  C  C197  1  0.38524168  0.25680106  0.00922186  1 -0.122367
  C  C198  1  0.30439227  0.22492679  0.20382465  1 0.584817
  C  C199  1  0.46900468  0.24896464  0.07290474  1 0.079278
  C  C200  1  0.49730921  0.21549238  0.11651586  1 -0.137715
  C  C201  1  0.55030999  0.21699356  0.11680189  1 -0.084483
  C  C202  1  0.57631012  0.25232794  0.07376243  1 -0.032239
  C  C203  1  0.54841442  0.28595042  0.03028892  1 -0.085845
  C  C204  1  0.49545274  0.28417585  0.02973294  1 -0.136609
  C  C205  1  0.25920393  0.17155667  0.80776226  1 0.57672
  C  C206  1  0.26007234  0.11644214  0.78705974  1 -0.020357
  C  C207  1  0.21612012  0.08629033  0.79178002  1 -0.083175
  C  C208  1  0.21690108  0.03588060  0.76827368  1 -0.129099
  C  C209  1  0.26160898  0.01424930  0.73944995  1 0.067939
  C  C210  1  0.30565494  0.04480119  0.73557666  1 -0.130267
  C  C211  1  0.30489217  0.09508920  0.75906400  1 -0.081957
  C  C212  1  0.26491539  0.79268314  0.45201530  1 0.579122
  C  C213  1  0.25553915  0.82110857  0.38350508  1 -0.023927
  C  C214  1  0.25678888  0.87443435  0.38309773  1 -0.122925
  C  C215  1  0.25324176  0.12224787  0.31994176  1 0.584015
  C  C216  1  0.25110892  0.06553737  0.31967793  1 -0.035975
  C  C217  1  0.21583343  0.03955544  0.27652283  1 -0.083119
  C  C218  1  0.21470150  0.98651477  0.27651516  1 -0.137544
  C  C219  1  0.24850249  0.95820762  0.31965663  1 0.079019
  C  C220  1  0.28358539  0.98475009  0.36297621  1 -0.138339
  C  C221  1  0.28497494  0.03771929  0.36293718  1 -0.082843
  C  C222  1  0.22428693  0.79293310  0.18912498  1 0.581256
  C  C223  1  0.23443335  0.82127848  0.25718188  1 -0.027151
  C  C224  1  0.23620525  0.87461799  0.25672532  1 -0.125074
  C  C225  1  0.24713425  0.90189370  0.31976622  1 0.058936
  C  C226  1  0.24407056  0.79433477  0.32060219  1 -0.092165
  C  C227  1  0.26364952  0.31526453  0.33643783  1 0.577228
  C  C228  1  0.26483057  0.37045121  0.35552345  1 -0.019125
  C  C229  1  0.22173334  0.40136570  0.34662370  1 -0.082796
  C  C230  1  0.22273507  0.45202785  0.36892334  1 -0.127459
  C  C231  1  0.26660812  0.47321277  0.40097379  1 0.067239
  C  C232  1  0.30956352  0.44147792  0.40908672  1 -0.128184
  C  C233  1  0.30888602  0.39103075  0.38669097  1 -0.081123
  C  C234  1  0.30659011  0.88256437  0.68476296  1 0.102618
  C  C235  1  0.30726216  0.93178138  0.71272647  1 -0.183271
  C  C236  1  0.26245993  0.96127697  0.71239950  1 0.1095
  C  C237  1  0.21862168  0.93815495  0.68366824  1 -0.183413
  C  C238  1  0.22116489  0.88860647  0.65722387  1 0.102997
  C  C239  1  0.31386820  0.59910836  0.47612021  1 0.098141
  C  C240  1  0.31389816  0.54968154  0.44916200  1 -0.18153
  C  C241  1  0.26805224  0.52661101  0.42685825  1 0.108061
  C  C242  1  0.22408006  0.55712939  0.43185169  1 -0.180176
  C  C243  1  0.22747529  0.60658882  0.45843436  1 0.103103
  C  C244  1  0.25423343  0.36680217  0.82349113  1 0.57956
  C  C245  1  0.26407703  0.69637953  0.69018654  1 0.581416
  C  C246  1  0.25546812  0.66807816  0.75897779  1 -0.022486
  C  C247  1  0.24467303  0.69475742  0.82218863  1 -0.091076
  C  C248  1  0.23497351  0.66767344  0.88547445  1 -0.029019
  C  C249  1  0.23622981  0.61435461  0.88557603  1 -0.122543
  C  C250  1  0.24727393  0.58723387  0.82250556  1 0.056158
  C  C251  1  0.25680081  0.61474861  0.75921798  1 -0.122382
  C  C252  1  0.22492503  0.69560065  0.95381620  1 0.585256
  C  C253  1  0.24895784  0.53097689  0.82291113  1 0.082343
  C  C254  1  0.21548722  0.50267337  0.86652241  1 -0.138463
  C  C255  1  0.21698665  0.44967100  0.86680069  1 -0.084713
  C  C256  1  0.25231257  0.42365687  0.82376567  1 -0.032265
  C  C257  1  0.28593712  0.45156491  0.78030425  1 -0.0856
  C  C258  1  0.28416580  0.50452779  0.77974156  1 -0.138009
  C  C259  1  0.17155231  0.74079357  0.55769543  1 0.576919
  C  C260  1  0.11643554  0.73991758  0.53703382  1 -0.019937
  C  C261  1  0.08628620  0.78387118  0.54176310  1 -0.08324
  C  C262  1  0.03587272  0.78309396  0.51826660  1 -0.12911
  C  C263  1  0.01423787  0.73838507  0.48945289  1 0.067088
  C  C264  1  0.04478624  0.69433580  0.48557452  1 -0.129954
  C  C265  1  0.09507646  0.69509584  0.50905400  1 -0.082381
  C  C266  1  0.79267250  0.73509245  0.20197687  1 0.578661
  C  C267  1  0.82110434  0.74446938  0.13347927  1 -0.024106
  C  C268  1  0.87442634  0.74322181  0.13308457  1 -0.122444
  C  C269  1  0.12224998  0.74676999  0.06995727  1 0.583172
  C  C270  1  0.06553742  0.74889669  0.06969261  1 -0.035695
  C  C271  1  0.03955230  0.78417708  0.02653683  1 -0.083349
  C  C272  1  0.98650981  0.78531032  0.02652223  1 -0.137482
  C  C273  1  0.95820219  0.75150775  0.06965894  1 0.079731
  C  C274  1  0.98474580  0.71642047  0.11297647  1 -0.138625
  C  C275  1  0.03771581  0.71502309  0.11293969  1 -0.082665
  C  C276  1  0.79292191  0.77572797  0.93912679  1 0.581303
  C  C277  1  0.82127589  0.76557448  0.00716802  1 -0.027339
  C  C278  1  0.87461592  0.76380246  0.00670856  1 -0.124088
  C  C279  1  0.90188844  0.75287454  0.06975721  1 0.056742
  C  C280  1  0.79433121  0.75593552  0.07057980  1 -0.091647
  C  C281  1  0.31526572  0.73635168  0.08642815  1 0.577134
  C  C282  1  0.37045567  0.73517589  0.10549903  1 -0.019029
  C  C283  1  0.40136798  0.77827579  0.09660055  1 -0.082581
  C  C284  1  0.45202937  0.77727306  0.11890268  1 -0.127426
  C  C285  1  0.47321276  0.73339539  0.15094418  1 0.067039
  C  C286  1  0.44148327  0.69043785  0.15905719  1 -0.128152
  C  C287  1  0.39103522  0.69111911  0.13667042  1 -0.081301
  C  C288  1  0.88256316  0.69340087  0.43477278  1 0.102809
  C  C289  1  0.93177889  0.69272721  0.46273529  1 -0.184337
  C  C290  1  0.96126864  0.73753062  0.46241122  1 0.112366
  C  C291  1  0.93815082  0.78137153  0.43368399  1 -0.184344
  C  C292  1  0.88860573  0.77883237  0.40723018  1 0.102899
  C  C293  1  0.59910528  0.68612955  0.22609523  1 0.098501
  C  C294  1  0.54967898  0.68610293  0.19913036  1 -0.181379
  C  C295  1  0.52660582  0.73195061  0.17683910  1 0.108089
  C  C296  1  0.55711634  0.77592517  0.18185198  1 -0.180157
  C  C297  1  0.60657499  0.77253232  0.20844299  1 0.100685
  C  C298  1  0.74575463  0.63316485  0.32347437  1 0.579916
  C  C299  1  0.73592085  0.30362139  0.19021618  1 0.581705
  C  C300  1  0.74453945  0.33191432  0.25899351  1 -0.022271
  C  C301  1  0.75533362  0.30522173  0.32219188  1 -0.091143
  C  C302  1  0.76503254  0.33230172  0.38546890  1 -0.028894
  C  C303  1  0.76377592  0.38561910  0.38556692  1 -0.122958
  C  C304  1  0.75273119  0.41274017  0.32249345  1 0.057393
  C  C305  1  0.74320542  0.38523755  0.25920910  1 -0.122527
  C  C306  1  0.77508078  0.30437221  0.45380072  1 0.585283
  C  C307  1  0.75104266  0.46899225  0.32288859  1 0.07896
  C  C308  1  0.78451061  0.49729419  0.36650323  1 -0.137516
  C  C309  1  0.78300550  0.55029820  0.36678280  1 -0.084853
  C  C310  1  0.74767701  0.57631277  0.32374673  1 -0.032268
  C  C311  1  0.71405469  0.54840941  0.28028404  1 -0.085907
  C  C312  1  0.71583162  0.49544439  0.27971798  1 -0.136522
  C  C313  1  0.82848074  0.25920279  0.05770778  1 0.576602
  C  C314  1  0.88359213  0.26007689  0.03703181  1 -0.019578
  C  C315  1  0.91372600  0.21611683  0.04176373  1 -0.083587
  C  C316  1  0.96413236  0.21689974  0.01826484  1 -0.129043
  C  C317  1  0.98575892  0.26161404  0.98945239  1 0.067989
  C  C318  1  0.95521654  0.30566612  0.98557155  1 -0.129879
  C  C319  1  0.90493312  0.30490478  0.00905353  1 -0.082555
  C  C320  1  0.20733232  0.26490889  0.70200702  1 0.578735
  C  C321  1  0.17890027  0.25553069  0.63349963  1 -0.024206
  C  C322  1  0.12557643  0.25677875  0.63309799  1 -0.12207
  C  C323  1  0.87776067  0.25322738  0.56995652  1 0.583296
  C  C324  1  0.93447192  0.25110174  0.56969263  1 -0.035488
  C  C325  1  0.96045708  0.21582649  0.52653835  1 -0.083554
  C  C326  1  0.01349922  0.21469487  0.52652916  1 -0.137285
  C  C327  1  0.04180575  0.24849248  0.56966794  1 0.079615
  C  C328  1  0.01525799  0.28357487  0.61298054  1 -0.138813
  C  C329  1  0.96228911  0.28497249  0.61293949  1 -0.082656
  C  C330  1  0.20707884  0.22428010  0.43913417  1 0.581517
  C  C331  1  0.17872770  0.23443275  0.50717724  1 -0.027137
  C  C332  1  0.12538925  0.23620382  0.50672055  1 -0.12426
  C  C333  1  0.09811844  0.24712855  0.56976814  1 0.056678
  C  C334  1  0.20567042  0.24406782  0.57059205  1 -0.091919
  C  C335  1  0.68472961  0.26364786  0.58642566  1 0.576933
  C  C336  1  0.62954048  0.26482337  0.60550182  1 -0.0193
  C  C337  1  0.59862943  0.22172442  0.59660472  1 -0.082343
  C  C338  1  0.54796987  0.22272741  0.61890779  1 -0.127501
  C  C339  1  0.52678805  0.26660345  0.65094898  1 0.067045
  C  C340  1  0.55852013  0.30955825  0.65906186  1 -0.128257
  C  C341  1  0.60896652  0.30887797  0.63667456  1 -0.081239
  C  C342  1  0.11744084  0.30659155  0.93476696  1 0.102495
  C  C343  1  0.06822005  0.30727234  0.96273159  1 -0.183304
  C  C344  1  0.03872719  0.26246781  0.96241032  1 0.109445
  C  C345  1  0.06184803  0.21862752  0.93368364  1 -0.183529
  C  C346  1  0.11139921  0.22117856  0.90723221  1 0.103223
  C  C347  1  0.40088357  0.31385918  0.72610800  1 0.098686
  C  C348  1  0.45031551  0.31389693  0.69914282  1 -0.181541
  C  C349  1  0.47339145  0.26804967  0.67684703  1 0.108155
  C  C350  1  0.44287439  0.22407502  0.68186461  1 -0.180416
  C  C351  1  0.39341236  0.22747639  0.70845910  1 0.101289
  N  N352  1  0.73565722  0.13908590  0.15729516  1 -0.229528
  N  N353  1  0.72861769  0.37244410  0.98127089  1 -0.230435
  N  N354  1  0.26434724  0.86093580  0.65730295  1 -0.229529
  N  N355  1  0.27138422  0.62753732  0.48126284  1 -0.230443
  N  N356  1  0.86094019  0.73564830  0.40730921  1 -0.229665
  N  N357  1  0.62752668  0.72861814  0.23125754  1 -0.230198
  N  N358  1  0.13908238  0.26435469  0.90729841  1 -0.229684
  N  N359  1  0.37244554  0.27138052  0.73128125  1 -0.230444
  O  O360  1  0.74417726  0.77025286  0.70201162  1 -0.519139
  O  O361  1  0.73652490  0.25585626  0.94881073  1 -0.518501
  O  O362  1  0.66900648  0.78705212  0.75893679  1 -0.524397
  O  O363  1  0.72718284  0.18061412  0.00832485  1 -0.520681
  O  O364  1  0.78184925  0.18049802  0.63201803  1 -0.522622
  O  O365  1  0.77661823  0.25575486  0.69288914  1 -0.522927
  O  O366  1  0.78055190  0.85347920  0.78406417  1 -0.526193
  O  O367  1  0.71058745  0.85762263  0.85667827  1 -0.527077
  O  O368  1  0.74464362  0.74240080  0.44195112  1 -0.514059
  O  O369  1  0.66996422  0.72349163  0.38538341  1 -0.521185
  O  O370  1  0.77701429  0.70241063  0.80808324  1 -0.523199
  O  O371  1  0.69623009  0.71032700  0.85212081  1 -0.525262
  O  O372  1  0.34635396  0.71048814  0.53568024  1 -0.520625
  O  O373  1  0.34294836  0.77913523  0.61036253  1 -0.523517
  O  O374  1  0.78177893  0.81017424  0.33393272  1 -0.520367
  O  O375  1  0.69984087  0.80360969  0.29531474  1 -0.526471
  O  O376  1  0.25583035  0.22975277  0.20200328  1 -0.519155
  O  O377  1  0.26349007  0.74414183  0.44883421  1 -0.518385
  O  O378  1  0.33099433  0.21294305  0.25893610  1 -0.524451
  O  O379  1  0.27278792  0.81938420  0.50835995  1 -0.520846
  O  O380  1  0.21815308  0.81951891  0.13199244  1 -0.522599
  O  O381  1  0.22338445  0.74426786  0.19287993  1 -0.522903
  O  O382  1  0.21944367  0.14654392  0.28405440  1 -0.526166
  O  O383  1  0.28939811  0.14238734  0.35667724  1 -0.527001
  O  O384  1  0.25535773  0.25759715  0.94188828  1 -0.514554
  O  O385  1  0.33000342  0.27652074  0.88533661  1 -0.521422
  O  O386  1  0.22298554  0.29757746  0.30806381  1 -0.52334
  O  O387  1  0.30376860  0.28965896  0.35208910  1 -0.525054
  O  O388  1  0.65362168  0.28950055  0.03566468  1 -0.52091
  O  O389  1  0.65702178  0.22087393  0.11038312  1 -0.523998
  O  O390  1  0.21822633  0.18988914  0.83394871  1 -0.520349
  O  O391  1  0.30013980  0.19644478  0.79535510  1 -0.526514
  O  O392  1  0.22972982  0.74416436  0.95197507  1 -0.51924
  O  O393  1  0.74413036  0.73652421  0.19878583  1 -0.518319
  O  O394  1  0.21296310  0.66899436  0.00893694  1 -0.524597
  O  O395  1  0.81938120  0.72721280  0.25831651  1 -0.520471
  O  O396  1  0.81951103  0.78186518  0.88200345  1 -0.522517
  O  O397  1  0.74425593  0.77663700  0.94288474  1 -0.522948
  O  O398  1  0.14653666  0.78056864  0.03405794  1 -0.525719
  O  O399  1  0.14239520  0.71061728  0.10670178  1 -0.526692
  O  O400  1  0.25757483  0.74462917  0.69189568  1 -0.514209
  O  O401  1  0.27650194  0.66995591  0.63534576  1 -0.521133
  O  O402  1  0.29757818  0.77700028  0.05800165  1 -0.523189
  O  O403  1  0.28966732  0.69623969  0.10214199  1 -0.524986
  O  O404  1  0.28946370  0.34632457  0.78567330  1 -0.520846
  O  O405  1  0.22086311  0.34292215  0.86038431  1 -0.523691
  O  O406  1  0.18986115  0.78177665  0.58389798  1 -0.520127
  O  O407  1  0.19642952  0.69985575  0.54523954  1 -0.526503
  O  O408  1  0.77027497  0.25580848  0.45196226  1 -0.519223
  O  O409  1  0.25587244  0.26347147  0.69885703  1 -0.518446
  O  O410  1  0.78704579  0.33097911  0.50891527  1 -0.524764
  O  O411  1  0.18065141  0.27279148  0.75836424  1 -0.520694
  O  O412  1  0.18049380  0.21813880  0.38201097  1 -0.522711
  O  O413  1  0.25574466  0.22337450  0.44288801  1 -0.523124
  O  O414  1  0.85347782  0.21942535  0.53406362  1 -0.525778
  O  O415  1  0.85761970  0.28938246  0.60669542  1 -0.526705
  O  O416  1  0.74244353  0.25537489  0.19192189  1 -0.5146
  O  O417  1  0.72347209  0.33003787  0.13537403  1 -0.521341
  O  O418  1  0.70241261  0.22299716  0.55800543  1 -0.523173
  O  O419  1  0.71032678  0.30376250  0.60212933  1 -0.524772
  O  O420  1  0.71050614  0.65362932  0.28565873  1 -0.520928
  O  O421  1  0.77914437  0.65701355  0.36037443  1 -0.523842
  O  O422  1  0.81016608  0.21821061  0.08388039  1 -0.520577
  O  O423  1  0.80359682  0.30014412  0.04528834  1 -0.526287
