# generated using pymatgen
data_CuH7(C7O2)2
_symmetry_space_group_name_H-M   'P 1'
_cell_length_a   18.31175230
_cell_length_b   18.31220195
_cell_length_c   24.46950927
_cell_angle_alpha   74.71776585
_cell_angle_beta   74.71807666
_cell_angle_gamma   107.19335973
_symmetry_Int_Tables_number   1
_chemical_formula_structural   CuH7(C7O2)2
_chemical_formula_sum   'Cu8 H56 C112 O32'
_cell_volume   7023.16447907
_cell_formula_units_Z   8
loop_
 _symmetry_equiv_pos_site_id
 _symmetry_equiv_pos_as_xyz
  1  'x, y, z'
loop_
 _atom_site_type_symbol
 _atom_site_label
 _atom_site_symmetry_multiplicity
 _atom_site_fract_x
 _atom_site_fract_y
 _atom_site_fract_z
 _atom_site_occupancy
 _atom_site_charge
  Cu  Cu0  1  0.54860276  0.99626199  0.95691720  1 0.831398
  Cu  Cu1  1  0.49446934  0.54681157  0.95691776  1 0.831603
  Cu  Cu2  1  0.50374697  0.95119127  0.54325597  1 0.831105
  Cu  Cu3  1  0.95300972  0.00553544  0.54322470  1 0.830315
  Cu  Cu4  1  0.45140022  0.00373753  0.04307963  1 0.831401
  Cu  Cu5  1  0.50553090  0.45318861  0.04308242  1 0.831403
  Cu  Cu6  1  0.49625240  0.04881234  0.45674116  1 0.830923
  Cu  Cu7  1  0.04700626  0.99444588  0.45674915  1 0.830032
  H  H8  1  0.76816194  0.56257023  0.00964430  1 0.116345
  H  H9  1  0.88110759  0.82162929  0.82863907  1 0.105263
  H  H10  1  0.91890042  0.64855541  0.96478791  1 0.103948
  H  H11  1  0.73134759  0.73381493  0.87256373  1 0.116476
  H  H12  1  0.99257881  0.80743167  0.77295625  1 0.105005
  H  H13  1  0.03973126  0.91205100  0.68819754  1 0.116082
  H  H14  1  0.22219968  0.92779020  0.00963959  1 0.117028
  H  H15  1  0.29026242  0.84972892  0.82863386  1 0.105237
  H  H16  1  0.11632043  0.88665402  0.96478198  1 0.104806
  H  H17  1  0.39609413  0.89361862  0.87256425  1 0.116011
  H  H18  1  0.23446293  0.91960269  0.77295675  1 0.103055
  H  H19  1  0.27207160  0.89974718  0.68819192  1 0.116292
  H  H20  1  0.93743872  0.73184153  0.49034817  1 0.11627
  H  H21  1  0.67837762  0.61889828  0.67135871  1 0.105254
  H  H22  1  0.85144654  0.58111317  0.53521041  1 0.103827
  H  H23  1  0.76617346  0.76864554  0.62744517  1 0.116395
  H  H24  1  0.69256375  0.50741570  0.72704699  1 0.105068
  H  H25  1  0.58794484  0.46026147  0.81181451  1 0.116103
  H  H26  1  0.57221121  0.27780191  0.49035720  1 0.116883
  H  H27  1  0.65026717  0.20973519  0.67136442  1 0.105239
  H  H28  1  0.61334429  0.38367163  0.53521781  1 0.104734
  H  H29  1  0.60637931  0.10390618  0.62743881  1 0.116061
  H  H30  1  0.58040037  0.26554238  0.72704386  1 0.103024
  H  H31  1  0.60024827  0.22792466  0.81181060  1 0.116464
  H  H32  1  0.23183797  0.43743029  0.99035535  1 0.116402
  H  H33  1  0.11889253  0.17837090  0.17136095  1 0.105293
  H  H34  1  0.08109926  0.35144476  0.03521205  1 0.10395
  H  H35  1  0.26865209  0.26618559  0.12743597  1 0.116464
  H  H36  1  0.00742145  0.19256822  0.22704397  1 0.10502
  H  H37  1  0.96027073  0.08794553  0.31180714  1 0.116025
  H  H38  1  0.77779946  0.07221002  0.99036111  1 0.117067
  H  H39  1  0.70973755  0.15027136  0.17136640  1 0.105253
  H  H40  1  0.88367911  0.11334597  0.03521797  1 0.104732
  H  H41  1  0.60390486  0.10638161  0.12743641  1 0.115952
  H  H42  1  0.76553642  0.08039700  0.22704332  1 0.103044
  H  H43  1  0.72792788  0.10025348  0.31180821  1 0.116288
  H  H44  1  0.06256395  0.26816668  0.50965125  1 0.116443
  H  H45  1  0.32161824  0.38109848  0.32864303  1 0.105315
  H  H46  1  0.14855326  0.41889130  0.46478860  1 0.103859
  H  H47  1  0.23381905  0.23134739  0.37255890  1 0.116346
  H  H48  1  0.30743603  0.49258428  0.27295302  1 0.105068
  H  H49  1  0.41205522  0.53973911  0.18818512  1 0.116108
  H  H50  1  0.42778858  0.72219811  0.50964273  1 0.116885
  H  H51  1  0.34973274  0.79026488  0.32863557  1 0.105287
  H  H52  1  0.38665562  0.61632847  0.46478221  1 0.104722
  H  H53  1  0.39362058  0.89609414  0.37256124  1 0.116072
  H  H54  1  0.41959951  0.73445777  0.27295611  1 0.10305
  H  H55  1  0.39975117  0.77207546  0.18819015  1 0.116488
  H  H56  1  0.02851130  0.77850763  0.94297672  1 0.105393
  H  H57  1  0.24048326  0.99047286  0.51904100  1 0.131835
  H  H58  1  0.72149413  0.47149037  0.55701818  1 0.105378
  H  H59  1  0.50953319  0.25952416  0.98095101  1 0.131872
  H  H60  1  0.97148847  0.22149222  0.05702355  1 0.105357
  H  H61  1  0.75951000  0.00952571  0.48095930  1 0.131848
  H  H62  1  0.27850571  0.52850974  0.44298175  1 0.10538
  H  H63  1  0.49046660  0.74047648  0.01904929  1 0.131917
  C  C64  1  0.74112377  0.64225901  0.94294366  1 -0.03304
  C  C65  1  0.79374921  0.61946304  0.96992447  1 -0.082288
  C  C66  1  0.85674112  0.76414292  0.86771890  1 -0.139965
  C  C67  1  0.91085923  0.74021649  0.89263232  1 0.081627
  C  C68  1  0.87779625  0.66808680  0.94494786  1 -0.135443
  C  C69  1  0.77311032  0.71582630  0.89226701  1 -0.080234
  C  C70  1  0.00036095  0.78921746  0.86145224  1 0.075885
  C  C71  1  0.03338941  0.82138328  0.79745774  1 -0.178532
  C  C72  1  0.10265591  0.92022138  0.66444995  1 -0.123359
  C  C73  1  0.13398500  0.95024696  0.60069430  1 -0.017483
  C  C74  1  0.65214118  0.58876357  0.96577498  1 0.581849
  C  C75  1  0.08131078  0.96673209  0.56559250  1 0.585277
  C  C76  1  0.31592886  0.91478551  0.94294293  1 -0.034423
  C  C77  1  0.23632991  0.91061235  0.96992000  1 -0.084007
  C  C78  1  0.27554622  0.86813392  0.86771384  1 -0.138848
  C  C79  1  0.19651402  0.86714338  0.89262804  1 0.080753
  C  C80  1  0.17726549  0.88696364  0.94494161  1 -0.135815
  C  C81  1  0.33462678  0.89189910  0.89226359  1 -0.08013
  C  C82  1  0.13818862  0.84931405  0.86145230  1 0.077248
  C  C83  1  0.16915138  0.88114380  0.79745821  1 -0.17672
  C  C84  1  0.23289133  0.91531545  0.66443623  1 -0.122695
  C  C85  1  0.26534149  0.94905054  0.60067508  1 -0.018894
  C  C86  1  0.38208837  0.94544583  0.96576860  1 0.581368
  C  C87  1  0.35312997  0.96765584  0.56558808  1 0.586514
  C  C88  1  0.85775719  0.75892697  0.55705401  1 -0.0335
  C  C89  1  0.88054647  0.70627354  0.53007334  1 -0.082237
  C  C90  1  0.73585351  0.64325372  0.63227695  1 -0.13995
  C  C91  1  0.75978009  0.58913579  0.60737196  1 0.081423
  C  C92  1  0.83191511  0.62221511  0.55505522  1 -0.135446
  C  C93  1  0.78416604  0.72689481  0.60774244  1 -0.080207
  C  C94  1  0.71077895  0.49963161  0.63854696  1 0.075936
  C  C95  1  0.67861497  0.46660719  0.70254322  1 -0.178524
  C  C96  1  0.57977900  0.39732793  0.83555799  1 -0.123336
  C  C97  1  0.54972933  0.36598028  0.89929979  1 -0.017517
  C  C98  1  0.91135171  0.84803981  0.53416834  1 0.580367
  C  C99  1  0.53327930  0.41858962  0.93433583  1 0.585042
  C  C100  1  0.58519220  0.18401651  0.55704492  1 -0.034063
  C  C101  1  0.58938853  0.26365400  0.53007484  1 -0.08427
  C  C102  1  0.63187266  0.22446343  0.63228021  1 -0.138718
  C  C103  1  0.63285765  0.30348940  0.60737299  1 0.080574
  C  C104  1  0.61303372  0.32272588  0.55506250  1 -0.135622
  C  C105  1  0.60809435  0.16536609  0.60773567  1 -0.080733
  C  C106  1  0.65069066  0.36181960  0.63854460  1 0.07725
  C  C107  1  0.61885885  0.33085457  0.70254035  1 -0.176622
  C  C108  1  0.58468273  0.26711669  0.83555618  1 -0.122466
  C  C109  1  0.55099593  0.23471830  0.89930043  1 -0.019274
  C  C110  1  0.55448251  0.11776174  0.53417917  1 0.581298
  C  C111  1  0.53240091  0.14706528  0.93432886  1 0.586951
  C  C112  1  0.25887582  0.35774162  0.05705598  1 -0.033029
  C  C113  1  0.20625053  0.38053625  0.03007617  1 -0.082341
  C  C114  1  0.14325845  0.23585716  0.13228105  1 -0.140026
  C  C115  1  0.08914105  0.25978353  0.10736790  1 0.081632
  C  C116  1  0.12220377  0.33191366  0.05505182  1 -0.135439
  C  C117  1  0.22688975  0.28417315  0.10773345  1 -0.080212
  C  C118  1  0.99963929  0.21078309  0.13854819  1 0.075893
  C  C119  1  0.96661094  0.17861660  0.20254254  1 -0.17858
  C  C120  1  0.89734331  0.07978534  0.33556414  1 -0.123419
  C  C121  1  0.86599828  0.04974931  0.39932426  1 -0.017475
  C  C122  1  0.34785959  0.41123205  0.03422906  1 0.581669
  C  C123  1  0.91870358  0.03324357  0.43439206  1 0.58504
  C  C124  1  0.68407005  0.08521486  0.05705813  1 -0.03453
  C  C125  1  0.76367051  0.08938744  0.03007940  1 -0.084045
  C  C126  1  0.72445288  0.13186608  0.13228655  1 -0.138826
  C  C127  1  0.80348589  0.13285667  0.10737157  1 0.08074
  C  C128  1  0.82273411  0.11303650  0.05505889  1 -0.135761
  C  C129  1  0.66537394  0.10810090  0.10773600  1 -0.079975
  C  C130  1  0.86181063  0.15068610  0.13854791  1 0.077245
  C  C131  1  0.83084807  0.11885490  0.20254253  1 -0.176702
  C  C132  1  0.76710495  0.08468356  0.33556748  1 -0.122663
  C  C133  1  0.73464789  0.05094709  0.39932496  1 -0.018888
  C  C134  1  0.61791878  0.05455341  0.03422489  1 0.581469
  C  C135  1  0.64686731  0.03234397  0.43441051  1 0.586733
  C  C136  1  0.14222668  0.24108061  0.44295765  1 -0.033243
  C  C137  1  0.11945218  0.29373885  0.46993491  1 -0.082613
  C  C138  1  0.26413808  0.35673849  0.36772761  1 -0.14017
  C  C139  1  0.24021694  0.41086494  0.39263082  1 0.081464
  C  C140  1  0.16808757  0.37779474  0.44494467  1 -0.135368
  C  C141  1  0.21581967  0.27309754  0.39227094  1 -0.080261
  C  C142  1  0.28922109  0.50036824  0.36145334  1 0.075975
  C  C143  1  0.32138502  0.53339252  0.29745706  1 -0.178516
  C  C144  1  0.42022077  0.60267126  0.16444233  1 -0.123333
  C  C145  1  0.45027090  0.63402052  0.10070013  1 -0.017336
  C  C146  1  0.08866643  0.15196203  0.46580462  1 0.580733
  C  C147  1  0.46672063  0.58140568  0.06566871  1 0.585096
  C  C148  1  0.41480773  0.81598276  0.44295573  1 -0.033988
  C  C149  1  0.41061135  0.73634552  0.46992534  1 -0.084329
  C  C150  1  0.36812744  0.77553690  0.36771985  1 -0.138799
  C  C151  1  0.36714231  0.69651037  0.39262713  1 0.080618
  C  C152  1  0.38696620  0.67727407  0.44493743  1 -0.135614
  C  C153  1  0.39190554  0.83463371  0.39226472  1 -0.080795
  C  C154  1  0.34930928  0.63818034  0.36145543  1 0.077311
  C  C155  1  0.38114116  0.66914551  0.29745955  1 -0.176659
  C  C156  1  0.41531715  0.73288257  0.16444354  1 -0.12244
  C  C157  1  0.44900339  0.76528203  0.10070027  1 -0.01947
  C  C158  1  0.44551733  0.88223858  0.46582040  1 0.581297
  C  C159  1  0.46760596  0.85293454  0.06566424  1 0.587262
  C  C160  1  0.05339634  0.80338998  0.89320786  1 -0.180468
  C  C161  1  0.11766107  0.86765693  0.76467688  1 0.076962
  C  C162  1  0.15137620  0.90137182  0.69724484  1 0.06629
  C  C163  1  0.21569897  0.96569199  0.56860295  1 -0.095646
  C  C164  1  0.69661415  0.44660614  0.60678655  1 -0.180391
  C  C165  1  0.63234422  0.38233887  0.73532443  1 0.076799
  C  C166  1  0.59862717  0.34862336  0.80275479  1 0.06643
  C  C167  1  0.53432157  0.28430708  0.93138742  1 -0.094953
  C  C168  1  0.94660316  0.19660973  0.10679270  1 -0.180384
  C  C169  1  0.88233909  0.13233946  0.23532505  1 0.076904
  C  C170  1  0.84862781  0.09862721  0.30276071  1 0.066378
  C  C171  1  0.78428473  0.03431063  0.43140494  1 -0.095484
  C  C172  1  0.30338613  0.55339416  0.39321342  1 -0.180423
  C  C173  1  0.36765597  0.61766095  0.26467562  1 0.076781
  C  C174  1  0.40137245  0.65137728  0.19724542  1 0.066361
  C  C175  1  0.46567822  0.71569230  0.06861250  1 -0.094986
  O  O176  1  0.61156101  0.61129328  0.93396258  1 -0.528989
  O  O177  1  0.01766021  0.97762035  0.59243612  1 -0.514856
  O  O178  1  0.62287777  0.52449930  0.01431285  1 -0.518594
  O  O179  1  0.10536558  0.96851173  0.51103663  1 -0.518359
  O  O180  1  0.45446822  0.95472872  0.93395429  1 -0.527319
  O  O181  1  0.38998384  0.93000131  0.59243723  1 -0.515374
  O  O182  1  0.36280970  0.96116877  0.01431803  1 -0.517599
  O  O183  1  0.38361223  0.02040023  0.51101623  1 -0.519513
  O  O184  1  0.88862954  0.88839457  0.56610157  1 -0.527505
  O  O185  1  0.52240838  0.48235048  0.90763925  1 -0.515383
  O  O186  1  0.97553639  0.87703324  0.48564055  1 -0.517133
  O  O187  1  0.53151416  0.39472039  0.98891365  1 -0.518824
  O  O188  1  0.54527788  0.04548007  0.56609717  1 -0.526524
  O  O189  1  0.56991008  0.10997682  0.90762779  1 -0.515788
  O  O190  1  0.53882819  0.13729262  0.48563967  1 -0.51745
  O  O191  1  0.47961472  0.11637634  0.98892534  1 -0.520312
  O  O192  1  0.38843692  0.38870712  0.06603641  1 -0.52879
  O  O193  1  0.98236824  0.02239463  0.40755198  1 -0.514689
  O  O194  1  0.37712305  0.47550334  0.98568520  1 -0.518605
  O  O195  1  0.89463884  0.03151524  0.48894728  1 -0.518342
  O  O196  1  0.54552954  0.04527097  0.06604649  1 -0.527443
  O  O197  1  0.61001688  0.06999743  0.40756223  1 -0.515439
  O  O198  1  0.63719063  0.03883244  0.98568431  1 -0.517584
  O  O199  1  0.61638749  0.97959967  0.48898569  1 -0.51963
  O  O200  1  0.11137225  0.11159473  0.43390156  1 -0.527389
  O  O201  1  0.47759080  0.51765249  0.09235986  1 -0.515416
  O  O202  1  0.02448180  0.12296637  0.51435182  1 -0.517609
  O  O203  1  0.46848567  0.60528048  0.01108426  1 -0.518925
  O  O204  1  0.45472144  0.95451681  0.43390333  1 -0.526361
  O  O205  1  0.43008812  0.89002598  0.09237305  1 -0.515914
  O  O206  1  0.46117279  0.86270828  0.51436201  1 -0.517532
  O  O207  1  0.52038339  0.88362186  0.01107710  1 -0.520473
