# generated using pymatgen
data_Fe(C2N3)3
_symmetry_space_group_name_H-M   'P 1'
_cell_length_a   13.10605907
_cell_length_b   16.33797577
_cell_length_c   21.39894772
_cell_angle_alpha   90.00000000
_cell_angle_beta   90.01324832
_cell_angle_gamma   90.00000000
_symmetry_Int_Tables_number   1
_chemical_formula_structural   Fe(C2N3)3
_chemical_formula_sum   'Fe8 C48 N72'
_cell_volume   4582.08113219
_cell_formula_units_Z   8
loop_
 _symmetry_equiv_pos_site_id
 _symmetry_equiv_pos_as_xyz
  1  'x, y, z'
loop_
 _atom_site_type_symbol
 _atom_site_label
 _atom_site_symmetry_multiplicity
 _atom_site_fract_x
 _atom_site_fract_y
 _atom_site_fract_z
 _atom_site_occupancy
 _atom_site_charge
  Fe  Fe0  1  0.87446190  0.19961852  0.08977637  1 1.02106
  Fe  Fe1  1  0.04764094  0.19907160  0.40735854  1 1.020711
  Fe  Fe2  1  0.62558420  0.80038154  0.58980047  1 1.021181
  Fe  Fe3  1  0.45233300  0.80094887  0.90730787  1 1.021164
  Fe  Fe4  1  0.12553810  0.69961852  0.41022363  1 1.02106
  Fe  Fe5  1  0.95235906  0.69907160  0.09264146  1 1.020711
  Fe  Fe6  1  0.37441580  0.30038154  0.91019953  1 1.021181
  Fe  Fe7  1  0.54766700  0.30094887  0.59269213  1 1.021164
  C  C8  1  0.80824171  0.21370472  0.22615744  1 0.470286
  C  C9  1  0.85848229  0.21507213  0.32671682  1 0.474151
  C  C10  1  0.06268661  0.18333635  0.16989840  1 0.472577
  C  C11  1  0.11253968  0.18060651  0.27162896  1 0.469962
  C  C12  1  0.99636916  0.22367613  0.97542163  1 0.480685
  C  C13  1  0.15251540  0.26821612  0.93975142  1 0.477938
  C  C14  1  0.94250312  0.37609084  0.07507551  1 0.470591
  C  C15  1  0.97966123  0.51605952  0.07150939  1 0.475031
  C  C16  1  0.26797666  0.19034207  0.44969917  1 0.47566
  C  C17  1  0.42332696  0.23300999  0.48856922  1 0.478573
  C  C18  1  0.87818703  0.87444262  0.10233633  1 0.469676
  C  C19  1  0.84398368  0.01495920  0.09664005  1 0.472763
  C  C20  1  0.69176711  0.78634370  0.72618647  1 0.469514
  C  C21  1  0.64141221  0.78490630  0.82668683  1 0.474425
  C  C22  1  0.43741217  0.81670479  0.66991563  1 0.473234
  C  C23  1  0.38746348  0.81938555  0.77161951  1 0.470341
  C  C24  1  0.50369017  0.77619382  0.47541683  1 0.480436
  C  C25  1  0.34745933  0.73167710  0.43983505  1 0.47765
  C  C26  1  0.55750947  0.62394786  0.57504536  1 0.471119
  C  C27  1  0.52041185  0.48399158  0.57160484  1 0.474946
  C  C28  1  0.23199664  0.80968487  0.94960542  1 0.475446
  C  C29  1  0.07672679  0.76692419  0.98852421  1 0.478045
  C  C30  1  0.62174770  0.12556335  0.60230709  1 0.469347
  C  C31  1  0.65610177  0.98505687  0.59669609  1 0.472368
  C  C32  1  0.19175829  0.71370472  0.27384256  1 0.47029
  C  C33  1  0.14151771  0.71507213  0.17328318  1 0.474149
  C  C34  1  0.93731339  0.68333635  0.33010160  1 0.472576
  C  C35  1  0.88746032  0.68060651  0.22837104  1 0.469962
  C  C36  1  0.00363084  0.72367613  0.52457837  1 0.480685
  C  C37  1  0.84748460  0.76821612  0.56024858  1 0.477942
  C  C38  1  0.05749688  0.87609084  0.42492449  1 0.47059
  C  C39  1  0.02033877  0.01605952  0.42849061  1 0.475028
  C  C40  1  0.73202334  0.69034207  0.05030083  1 0.475659
  C  C41  1  0.57667304  0.73300999  0.01143078  1 0.478573
  C  C42  1  0.12181297  0.37444262  0.39766367  1 0.469676
  C  C43  1  0.15601632  0.51495920  0.40335995  1 0.472763
  C  C44  1  0.30823289  0.28634370  0.77381353  1 0.469518
  C  C45  1  0.35858779  0.28490630  0.67331317  1 0.474422
  C  C46  1  0.56258783  0.31670479  0.83008437  1 0.473233
  C  C47  1  0.61253652  0.31938555  0.72838049  1 0.47034
  C  C48  1  0.49630983  0.27619382  0.02458317  1 0.480436
  C  C49  1  0.65254067  0.23167710  0.06016495  1 0.477654
  C  C50  1  0.44249053  0.12394786  0.92495464  1 0.471119
  C  C51  1  0.47958815  0.98399158  0.92839516  1 0.474943
  C  C52  1  0.76800336  0.30968487  0.55039458  1 0.475445
  C  C53  1  0.92327321  0.26692419  0.51147579  1 0.478045
  C  C54  1  0.37825230  0.62556335  0.89769291  1 0.469347
  C  C55  1  0.34389823  0.48505687  0.90330391  1 0.472369
  N  N56  1  0.82142834  0.20921080  0.17205266  1 -0.468274
  N  N57  1  0.91902419  0.21223624  0.36711110  1 -0.476375
  N  N58  1  0.78739224  0.21922097  0.28504906  1 -0.367413
  N  N59  1  0.00506230  0.18230685  0.12776781  1 -0.479521
  N  N60  1  0.10218796  0.17629920  0.32609811  1 -0.47352
  N  N61  1  0.13199284  0.18511868  0.21263053  1 -0.36366
  N  N62  1  0.93530039  0.19294485  0.00846072  1 -0.475871
  N  N63  1  0.24025717  0.28260354  0.93963940  1 -0.459426
  N  N64  1  0.05531192  0.25812646  0.93565129  1 -0.351397
  N  N65  1  0.90404453  0.31268158  0.08614804  1 -0.471659
  N  N66  1  0.97798435  0.58716646  0.07942019  1 -0.452221
  N  N67  1  0.99276290  0.44002985  0.05937582  1 -0.346239
  N  N68  1  0.17948654  0.18609413  0.44174341  1 -0.459114
  N  N69  1  0.48457484  0.27254979  0.51535626  1 -0.471059
  N  N70  1  0.36537320  0.18603185  0.45628717  1 -0.35183
  N  N71  1  0.91917939  0.81043299  0.10339953  1 -0.468725
  N  N72  1  0.85135210  0.08618606  0.09096908  1 -0.448029
  N  N73  1  0.82310939  0.93907590  0.10442241  1 -0.345562
  N  N74  1  0.67849437  0.79084899  0.67208867  1 -0.4679
  N  N75  1  0.58089144  0.78776855  0.86706443  1 -0.47617
  N  N76  1  0.71257279  0.78074668  0.78508107  1 -0.367474
  N  N77  1  0.49494241  0.81780099  0.62775380  1 -0.48012
  N  N78  1  0.39780769  0.82365850  0.82608879  1 -0.47372
  N  N79  1  0.36808697  0.81485810  0.71261063  1 -0.363769
  N  N80  1  0.56470259  0.80705883  0.50844828  1 -0.47588
  N  N81  1  0.25970717  0.71733787  0.43967167  1 -0.459127
  N  N82  1  0.44466476  0.74179567  0.43566279  1 -0.351231
  N  N83  1  0.59612308  0.68727445  0.58620072  1 -0.472286
  N  N84  1  0.52206949  0.41288221  0.57950675  1 -0.452253
  N  N85  1  0.50718246  0.56000333  0.55942573  1 -0.346447
  N  N86  1  0.32046842  0.81394351  0.94160109  1 -0.459226
  N  N87  1  0.01546907  0.72739058  0.01529354  1 -0.47052
  N  N88  1  0.13461091  0.81398749  0.95629765  1 -0.35134
  N  N89  1  0.58081382  0.18959426  0.60341837  1 -0.468526
  N  N90  1  0.64873955  0.91383144  0.59099699  1 -0.447754
  N  N91  1  0.67689797  0.06097562  0.60441282  1 -0.345237
  N  N92  1  0.17857166  0.70921080  0.32794734  1 -0.468274
  N  N93  1  0.08097581  0.71223624  0.13288890  1 -0.476375
  N  N94  1  0.21260776  0.71922097  0.21495094  1 -0.367413
  N  N95  1  0.99493770  0.68230685  0.37223219  1 -0.479521
  N  N96  1  0.89781204  0.67629920  0.17390189  1 -0.47352
  N  N97  1  0.86800716  0.68511868  0.28736947  1 -0.36366
  N  N98  1  0.06469961  0.69294485  0.49153928  1 -0.475871
  N  N99  1  0.75974283  0.78260354  0.56036060  1 -0.459426
  N  N100  1  0.94468808  0.75812646  0.56434871  1 -0.351398
  N  N101  1  0.09595547  0.81268158  0.41385196  1 -0.471659
  N  N102  1  0.02201565  0.08716646  0.42057981  1 -0.452221
  N  N103  1  0.00723710  0.94002985  0.44062418  1 -0.346239
  N  N104  1  0.82051346  0.68609413  0.05825659  1 -0.459115
  N  N105  1  0.51542516  0.77254979  0.98464374  1 -0.47106
  N  N106  1  0.63462680  0.68603185  0.04371283  1 -0.35183
  N  N107  1  0.08082061  0.31043299  0.39660047  1 -0.468725
  N  N108  1  0.14864790  0.58618606  0.40903092  1 -0.448029
  N  N109  1  0.17689061  0.43907590  0.39557759  1 -0.345562
  N  N110  1  0.32150563  0.29084899  0.82791133  1 -0.467901
  N  N111  1  0.41910856  0.28776855  0.63293557  1 -0.476171
  N  N112  1  0.28742721  0.28074668  0.71491893  1 -0.367474
  N  N113  1  0.50505759  0.31780099  0.87224620  1 -0.48012
  N  N114  1  0.60219231  0.32365850  0.67391121  1 -0.473721
  N  N115  1  0.63191303  0.31485810  0.78738937  1 -0.363768
  N  N116  1  0.43529741  0.30705883  0.99155172  1 -0.47588
  N  N117  1  0.74029283  0.21733787  0.06032833  1 -0.459128
  N  N118  1  0.55533524  0.24179567  0.06433721  1 -0.351231
  N  N119  1  0.40387692  0.18727445  0.91379928  1 -0.472286
  N  N120  1  0.47793051  0.91288221  0.92049325  1 -0.452254
  N  N121  1  0.49281754  0.06000333  0.94057427  1 -0.346446
  N  N122  1  0.67953158  0.31394351  0.55839891  1 -0.459227
  N  N123  1  0.98453093  0.22739058  0.48470646  1 -0.47052
  N  N124  1  0.86538909  0.31398749  0.54370235  1 -0.35134
  N  N125  1  0.41918618  0.68959426  0.89658163  1 -0.468526
  N  N126  1  0.35126045  0.41383144  0.90900301  1 -0.447754
  N  N127  1  0.32310203  0.56097562  0.89558718  1 -0.345237
