# generated using pymatgen
data_CuH2(C3N4)2
_symmetry_space_group_name_H-M   'P 1'
_cell_length_a   18.44154393
_cell_length_b   18.44125858
_cell_length_c   18.44100350
_cell_angle_alpha   89.99999946
_cell_angle_beta   90.00000283
_cell_angle_gamma   89.99987429
_symmetry_Int_Tables_number   1
_chemical_formula_structural   CuH2(C3N4)2
_chemical_formula_sum   'Cu12 H24 C72 N96'
_cell_volume   6271.51384437
_cell_formula_units_Z   12
loop_
 _symmetry_equiv_pos_site_id
 _symmetry_equiv_pos_as_xyz
  1  'x, y, z'
loop_
 _atom_site_type_symbol
 _atom_site_label
 _atom_site_symmetry_multiplicity
 _atom_site_fract_x
 _atom_site_fract_y
 _atom_site_fract_z
 _atom_site_occupancy
 _atom_site_charge
  Cu  Cu0  1  0.50000130  0.13364654  -0.00000057  1 0.544042
  Cu  Cu1  1  0.50000127  0.86635301  -0.00000053  1 0.544309
  Cu  Cu2  1  -0.00000400  0.50000001  0.13364439  1 0.544058
  Cu  Cu3  1  -0.00000401  0.50000001  0.86635602  1 0.544161
  Cu  Cu4  1  0.13365469  -0.00000014  0.50000040  1 0.546443
  Cu  Cu5  1  0.86635304  -0.00000049  0.50000044  1 0.543128
  Cu  Cu6  1  0.13364923  0.50000002  -0.00000271  1 0.539206
  Cu  Cu7  1  0.86635327  0.49999999  -0.00000280  1 0.544268
  Cu  Cu8  1  0.50000129  0.00000062  0.86635330  1 0.543893
  Cu  Cu9  1  0.50000128  0.00000061  0.13364661  1 0.543999
  Cu  Cu10  1  -0.00000365  0.13364469  0.50000044  1 0.544415
  Cu  Cu11  1  -0.00000403  0.86635545  0.50000043  1 0.522027
  H  H12  1  0.26468215  0.26468178  0.09926045  1 0.124861
  H  H13  1  0.73531802  0.73531797  0.09926057  1 0.124837
  H  H14  1  0.73531805  0.26468219  0.90073943  1 0.1247
  H  H15  1  0.26468213  0.73531809  0.90073955  1 0.124836
  H  H16  1  0.09926017  0.26468199  0.26468198  1 0.124784
  H  H17  1  0.09926007  0.73531783  0.73531810  1 0.124784
  H  H18  1  0.90073931  0.73531786  0.26468203  1 0.12457
  H  H19  1  0.90073939  0.26468230  0.73531804  1 0.124495
  H  H20  1  0.26468221  0.09926050  0.26468173  1 0.124527
  H  H21  1  0.73531791  0.09926049  0.73531796  1 0.124467
  H  H22  1  0.26468227  0.90073961  0.73531825  1 0.124628
  H  H23  1  0.73531793  0.90073939  0.26468198  1 0.124614
  H  H24  1  0.26468212  0.26468192  0.90073955  1 0.124867
  H  H25  1  0.73531804  0.73531782  0.90073943  1 0.124795
  H  H26  1  0.26468216  0.73531823  0.09926044  1 0.124945
  H  H27  1  0.73531803  0.26468204  0.09926057  1 0.124747
  H  H28  1  0.26468226  0.09926039  0.73531825  1 0.124498
  H  H29  1  0.73531796  0.09926061  0.26468202  1 0.124465
  H  H30  1  0.73531788  0.90073950  0.73531800  1 0.12463
  H  H31  1  0.26468224  0.90073950  0.26468173  1 0.124646
  H  H32  1  0.09926007  0.26468217  0.73531812  1 0.124767
  H  H33  1  0.09926016  0.73531800  0.26468200  1 0.124803
  H  H34  1  0.90073931  0.26468212  0.26468206  1 0.124502
  H  H35  1  0.90073939  0.73531768  0.73531806  1 0.124535
  C  C36  1  0.24077313  0.24077385  0.14768416  1 -0.134667
  C  C37  1  0.75922615  0.75922619  0.14768341  1 -0.134642
  C  C38  1  0.75922607  0.24077341  0.85231634  1 -0.134834
  C  C39  1  0.24077325  0.75922667  0.85231546  1 -0.134419
  C  C40  1  0.14768103  0.24077447  0.24077430  1 -0.13485
  C  C41  1  0.14768105  0.75922572  0.75922558  1 -0.134929
  C  C42  1  0.85231604  0.75922649  0.24077349  1 -0.134756
  C  C43  1  0.85231595  0.24077327  0.75922636  1 -0.134757
  C  C44  1  0.24077311  0.14768410  0.24077391  1 -0.135217
  C  C45  1  0.75922606  0.14768295  0.75922585  1 -0.135016
  C  C46  1  0.24077328  0.85231615  0.75922597  1 -0.135164
  C  C47  1  0.75922606  0.85231674  0.24077382  1 -0.134887
  C  C48  1  0.24077323  0.24077338  0.85231552  1 -0.134765
  C  C49  1  0.75922606  0.75922665  0.85231626  1 -0.134662
  C  C50  1  0.24077317  0.75922619  0.14768419  1 -0.134431
  C  C51  1  0.75922616  0.24077389  0.14768334  1 -0.134808
  C  C52  1  0.24077322  0.14768379  0.75922586  1 -0.135196
  C  C53  1  0.75922619  0.14768329  0.24077392  1 -0.134974
  C  C54  1  0.75922595  0.85231707  0.75922594  1 -0.134951
  C  C55  1  0.24077318  0.85231586  0.24077380  1 -0.135121
  C  C56  1  0.14768104  0.24077428  0.75922555  1 -0.134913
  C  C57  1  0.14768104  0.75922553  0.24077427  1 -0.134851
  C  C58  1  0.85231597  0.24077345  0.24077349  1 -0.134775
  C  C59  1  0.85231602  0.75922667  0.75922636  1 -0.134739
  C  C60  1  0.27168744  0.17888344  0.17888347  1 0.03737
  C  C61  1  0.33645213  0.14684664  0.14684671  1 0.238057
  C  C62  1  0.72831351  0.82111628  0.17888370  1 0.037385
  C  C63  1  0.66354823  0.85315310  0.14684651  1 0.237976
  C  C64  1  0.72831354  0.17888368  0.82111628  1 0.037274
  C  C65  1  0.66354967  0.14684751  0.85315245  1 0.238046
  C  C66  1  0.27168731  0.82111643  0.82111650  1 0.037525
  C  C67  1  0.33645267  0.85315343  0.85315388  1 0.237836
  C  C68  1  0.17888508  0.27168586  0.17888253  1 0.037898
  C  C69  1  0.14685223  0.33644967  0.14684542  1 0.237297
  C  C70  1  0.17888516  0.72831382  0.82111784  1 0.038221
  C  C71  1  0.14685372  0.66355016  0.85315600  1 0.237087
  C  C72  1  0.82111665  0.72831340  0.17888391  1 0.037585
  C  C73  1  0.85315342  0.66354862  0.14684727  1 0.237793
  C  C74  1  0.82111659  0.27168693  0.82111643  1 0.037382
  C  C75  1  0.85315198  0.33645152  0.85315414  1 0.237857
  C  C76  1  0.17888481  0.17888285  0.27168591  1 0.03673
  C  C77  1  0.14685178  0.14684655  0.33644897  1 0.238872
  C  C78  1  0.82111637  0.17888401  0.72831377  1 0.037058
  C  C79  1  0.85315285  0.14684780  0.66354958  1 0.238215
  C  C80  1  0.17888500  0.82111716  0.72831423  1 0.036506
  C  C81  1  0.14685210  0.85315340  0.66355138  1 0.238952
  C  C82  1  0.82111656  0.82111605  0.27168643  1 0.036878
  C  C83  1  0.85315248  0.85315202  0.33645002  1 0.238114
  C  C84  1  0.17888515  0.27168617  0.82111783  1 0.038031
  C  C85  1  0.14685370  0.33644990  0.85315603  1 0.237338
  C  C86  1  0.82111660  0.72831305  0.82111643  1 0.03755
  C  C87  1  0.85315201  0.66354844  0.85315415  1 0.237732
  C  C88  1  0.17888508  0.72831413  0.17888251  1 0.038059
  C  C89  1  0.14685225  0.66355037  0.14684544  1 0.237186
  C  C90  1  0.82111664  0.27168659  0.17888391  1 0.037411
  C  C91  1  0.85315341  0.33645136  0.14684727  1 0.237932
  C  C92  1  0.27168737  0.17888348  0.82111649  1 0.037385
  C  C93  1  0.33645174  0.14684688  0.85315309  1 0.238101
  C  C94  1  0.72831346  0.17888365  0.17888370  1 0.037187
  C  C95  1  0.66354925  0.14684726  0.14684733  1 0.238111
  C  C96  1  0.72831361  0.82111623  0.82111626  1 0.037406
  C  C97  1  0.66354867  0.85315284  0.85315326  1 0.238114
  C  C98  1  0.27168740  0.82111648  0.17888345  1 0.037446
  C  C99  1  0.33645307  0.85315367  0.14684592  1 0.237967
  C  C100  1  0.17888500  0.17888287  0.72831427  1 0.036686
  C  C101  1  0.14685200  0.14684675  0.66355146  1 0.238897
  C  C102  1  0.17888481  0.82111717  0.27168594  1 0.036542
  C  C103  1  0.14685190  0.85315356  0.33644901  1 0.238887
  C  C104  1  0.82111654  0.17888400  0.27168643  1 0.037065
  C  C105  1  0.85315305  0.14684760  0.33645085  1 0.23818
  C  C106  1  0.82111639  0.82111603  0.72831376  1 0.036937
  C  C107  1  0.85315228  0.85315182  0.66355040  1 0.23807
  N  N108  1  0.37017183  0.17308066  0.08714625  1 -0.206746
  N  N109  1  0.42526830  0.12882722  0.07728929  1 -0.061804
  N  N110  1  0.62982759  0.82692037  0.08714682  1 -0.206642
  N  N111  1  0.57473215  0.87116537  0.07728260  1 -0.061944
  N  N112  1  0.62982731  0.17308075  0.91285484  1 -0.206759
  N  N113  1  0.57473087  0.12882718  0.92271148  1 -0.061891
  N  N114  1  0.37017155  0.82691989  0.91285300  1 -0.206578
  N  N115  1  0.42526745  0.87116574  0.92271699  1 -0.0619
  N  N116  1  0.08714757  0.37017581  0.17307452  1 -0.208129
  N  N117  1  0.07727078  0.42527950  0.12883819  1 -0.061991
  N  N118  1  0.08714754  0.62982449  0.82692533  1 -0.208384
  N  N119  1  0.07726715  0.57471752  0.87116076  1 -0.06199
  N  N120  1  0.91285372  0.62982899  0.17308091  1 -0.206945
  N  N121  1  0.92271790  0.57473142  0.12883363  1 -0.06184
  N  N122  1  0.91285382  0.37017055  0.82691866  1 -0.20692
  N  N123  1  0.92272108  0.42527133  0.87116570  1 -0.06194
  N  N124  1  0.17307415  0.08714180  0.37018398  1 -0.20637
  N  N125  1  0.12883946  0.07730076  0.42523875  1 -0.061845
  N  N126  1  0.82692068  0.08714682  0.62982752  1 -0.206936
  N  N127  1  0.87116543  0.07728049  0.57473015  1 -0.062278
  N  N128  1  0.17307426  0.91285836  0.62981594  1 -0.20454
  N  N129  1  0.12884010  0.92270003  0.57476121  1 -0.062414
  N  N130  1  0.82692022  0.91285429  0.37017329  1 -0.205351
  N  N131  1  0.87117279  0.92271133  0.42526934  1 -0.062637
  N  N132  1  0.17308068  0.37018250  0.91286299  1 -0.207081
  N  N133  1  0.12884217  0.42524317  0.92270649  1 -0.061347
  N  N134  1  0.82691743  0.62983016  0.91285374  1 -0.207068
  N  N135  1  0.87116598  0.57473105  0.92271814  1 -0.061975
  N  N136  1  0.17307709  0.62981491  0.08713835  1 -0.206929
  N  N137  1  0.12884265  0.57475611  0.07729310  1 -0.061124
  N  N138  1  0.82692115  0.37017251  0.08714770  1 -0.206879
  N  N139  1  0.87116531  0.42526915  0.07728166  1 -0.061848
  N  N140  1  0.37017233  0.08714575  0.82691928  1 -0.20724
  N  N141  1  0.42526826  0.07728937  0.87117284  1 -0.061818
  N  N142  1  0.62982704  0.08714531  0.17308058  1 -0.206974
  N  N143  1  0.57473153  0.07728909  0.12882735  1 -0.061907
  N  N144  1  0.62982755  0.91285327  0.82692051  1 -0.206743
  N  N145  1  0.57473106  0.92271874  0.87116546  1 -0.06197
  N  N146  1  0.37017130  0.91285246  0.17307976  1 -0.206966
  N  N147  1  0.42526805  0.92271779  0.12883427  1 -0.061919
  N  N148  1  0.08714764  0.17307540  0.62982505  1 -0.205474
  N  N149  1  0.07727553  0.12883744  0.57472470  1 -0.061924
  N  N150  1  0.08714822  0.82692462  0.37017433  1 -0.205263
  N  N151  1  0.07727473  0.87116217  0.42527534  1 -0.055221
  N  N152  1  0.91285403  0.17308106  0.37017122  1 -0.207096
  N  N153  1  0.92271808  0.12883375  0.42526862  1 -0.062278
  N  N154  1  0.91285548  0.82691865  0.62982766  1 -0.207002
  N  N155  1  0.92271108  0.87117350  0.57473086  1 -0.055605
  N  N156  1  0.62982761  0.82692007  0.91285363  1 -0.206696
  N  N157  1  0.57473194  0.87116554  0.92271759  1 -0.062023
  N  N158  1  0.37017181  0.17308095  0.91285419  1 -0.206811
  N  N159  1  0.42526853  0.12882700  0.92271087  1 -0.061751
  N  N160  1  0.37017157  0.82692016  0.08714742  1 -0.206629
  N  N161  1  0.42526729  0.87116557  0.07728315  1 -0.061822
  N  N162  1  0.62982728  0.17308046  0.08714560  1 -0.206829
  N  N163  1  0.57473115  0.12882741  0.07728872  1 -0.06181
  N  N164  1  0.91285382  0.62982941  0.82691870  1 -0.207026
  N  N165  1  0.92272107  0.57472868  0.87116569  1 -0.061835
  N  N166  1  0.91285372  0.37017102  0.17308091  1 -0.206845
  N  N167  1  0.92271790  0.42526858  0.12883363  1 -0.061886
  N  N168  1  0.08714755  0.37017549  0.82692532  1 -0.208288
  N  N169  1  0.07726707  0.42528252  0.87116075  1 -0.062099
  N  N170  1  0.08714755  0.62982419  0.17307452  1 -0.208287
  N  N171  1  0.07727076  0.57472048  0.12883819  1 -0.06183
  N  N172  1  0.82692019  0.91285457  0.62982646  1 -0.205325
  N  N173  1  0.87117270  0.92271165  0.57473036  1 -0.062548
  N  N174  1  0.17307428  0.91285811  0.37018381  1 -0.204546
  N  N175  1  0.12884004  0.92269977  0.42523854  1 -0.062355
  N  N176  1  0.82692070  0.08714711  0.37017221  1 -0.206981
  N  N177  1  0.87116551  0.07728077  0.42526958  1 -0.062208
  N  N178  1  0.17307416  0.08714152  0.62981576  1 -0.206298
  N  N179  1  0.12883952  0.07730048  0.57476101  1 -0.06184
  N  N180  1  0.82692118  0.62982749  0.08714773  1 -0.206952
  N  N181  1  0.87116530  0.57473090  0.07728170  1 -0.061681
  N  N182  1  0.17307709  0.37018506  0.08713836  1 -0.206883
  N  N183  1  0.12884265  0.42524389  0.07729311  1 -0.061178
  N  N184  1  0.82691738  0.37016984  0.91285379  1 -0.207005
  N  N185  1  0.87116595  0.42526897  0.92271821  1 -0.062069
  N  N186  1  0.17308067  0.62981747  0.91286301  1 -0.207184
  N  N187  1  0.12884218  0.57475681  0.92270652  1 -0.061087
  N  N188  1  0.62982782  0.91285307  0.17307955  1 -0.206701
  N  N189  1  0.57473140  0.92271836  0.12883447  1 -0.06201
  N  N190  1  0.37017159  0.91285265  0.82692033  1 -0.20692
  N  N191  1  0.42526837  0.92271817  0.87116565  1 -0.061827
  N  N192  1  0.37017208  0.08714594  0.17308079  1 -0.207268
  N  N193  1  0.42526789  0.07728969  0.12882717  1 -0.061773
  N  N194  1  0.62982678  0.08714512  0.82691948  1 -0.20697
  N  N195  1  0.57473115  0.07728876  0.87117266  1 -0.061873
  N  N196  1  0.91285517  0.82691866  0.37017208  1 -0.207078
  N  N197  1  0.92271084  0.87117357  0.42526890  1 -0.055452
  N  N198  1  0.91285433  0.17308106  0.62982854  1 -0.207064
  N  N199  1  0.92271830  0.12883383  0.57473117  1 -0.062335
  N  N200  1  0.08714795  0.82692468  0.62982536  1 -0.205327
  N  N201  1  0.07727451  0.87116209  0.57472446  1 -0.055121
  N  N202  1  0.08714791  0.17307543  0.37017468  1 -0.205545
  N  N203  1  0.07727573  0.12883736  0.42527511  1 -0.061767
