# generated using pymatgen
data_LaP4C10(NO6)2
_symmetry_space_group_name_H-M   'P 1'
_cell_length_a   13.88899351
_cell_length_b   17.64862108
_cell_length_c   3.98240894
_cell_angle_alpha   90.00000000
_cell_angle_beta   117.18490940
_cell_angle_gamma   90.00000000
_symmetry_Int_Tables_number   1
_chemical_formula_structural   LaP4C10(NO6)2
_chemical_formula_sum   'La2 P8 C20 N4 O24'
_cell_volume   868.34297317
_cell_formula_units_Z   2
loop_
 _symmetry_equiv_pos_site_id
 _symmetry_equiv_pos_as_xyz
  1  'x, y, z'
loop_
 _atom_site_type_symbol
 _atom_site_label
 _atom_site_symmetry_multiplicity
 _atom_site_fract_x
 _atom_site_fract_y
 _atom_site_fract_z
 _atom_site_occupancy
 _atom_site_charge
  La  La0  1  0.57533987  0.24135334  0.45171000  1 1.941006
  La  La1  1  0.42466013  0.74135334  0.54829000  1 1.941006
  P  P2  1  0.39185211  0.07859282  0.08256615  1 1.111896
  P  P3  1  0.73033899  0.13408044  0.32161895  1 1.160748
  P  P4  1  0.64603849  0.88645978  0.20021973  1 0.973073
  P  P5  1  0.30762902  0.87283918  0.00495486  1 1.194903
  P  P6  1  0.60814789  0.57859282  0.91743385  1 1.111896
  P  P7  1  0.26966101  0.63408044  0.67838105  1 1.160748
  P  P8  1  0.35396151  0.38645978  0.79978027  1 0.973073
  P  P9  1  0.69237098  0.37283918  -0.00495486  1 1.194903
  C  C10  1  0.29691400  0.05447756  0.28358080  1 0.242105
  C  C11  1  0.79719313  0.04700367  0.35400856  1 0.069919
  C  C12  1  0.17259319  0.96914192  0.32787569  1 0.115161
  C  C13  1  0.05605623  0.97775016  0.14411045  1 0.046162
  C  C14  1  -0.01426185  0.98086574  0.32257550  1 0.02299
  C  C15  1  0.70433657  0.94000849  0.94464879  1 0.31361
  C  C16  1  0.22292486  0.93565434  0.67707266  1 -0.116131
  C  C17  1  0.87459298  0.99243466  0.01310321  1 0.097896
  C  C18  1  0.88058175  0.01073567  0.68776087  1 -0.124017
  C  C19  1  -0.01058253  0.99119080  0.74151625  1 0.078973
  C  C20  1  0.70308600  0.55447756  0.71641920  1 0.242105
  C  C21  1  0.20280687  0.54700367  0.64599144  1 0.069919
  C  C22  1  0.82740681  0.46914192  0.67212431  1 0.115161
  C  C23  1  0.94394377  0.47775016  0.85588955  1 0.046162
  C  C24  1  0.01426185  0.48086574  0.67742450  1 0.02299
  C  C25  1  0.29566343  0.44000849  0.05535121  1 0.31361
  C  C26  1  0.77707514  0.43565434  0.32292734  1 -0.116131
  C  C27  1  0.12540702  0.49243466  -0.01310321  1 0.097896
  C  C28  1  0.11941825  0.51073567  0.31223913  1 -0.124017
  C  C29  1  0.01058253  0.49119080  0.25848375  1 0.078973
  N  N30  1  0.22459347  0.00334716  0.14949581  1 -0.270259
  N  N31  1  0.77502552  -0.00100707  0.02350064  1 -0.19093
  N  N32  1  0.77540653  0.50334716  0.85050419  1 -0.270259
  N  N33  1  0.22497448  0.49899293  -0.02350064  1 -0.19093
  O  O34  1  0.33031025  0.09150765  0.61072463  1 -0.299588
  O  O35  1  0.42982589  0.15799347  0.21529542  1 -0.773552
  O  O36  1  0.46545415  0.01318925  0.18421058  1 -0.633761
  O  O37  1  0.83827707  0.12306077  0.28128369  1 -0.334099
  O  O38  1  0.62088094  0.15380558  0.99222124  1 -0.745254
  O  O39  1  0.74613067  0.17747049  0.66470280  1 -0.697092
  O  O40  1  0.70231972  0.89011642  0.67028595  1 -0.360905
  O  O41  1  0.57211890  0.82046008  0.08690735  1 -0.658247
  O  O42  1  0.60368762  0.96354914  0.95156213  1 -0.318189
  O  O43  1  0.17570396  0.87779769  0.81953002  1 -0.320638
  O  O44  1  0.36683234  0.88345996  0.42248929  1 -0.719823
  O  O45  1  0.34616429  0.79726083  -0.08913680  1 -0.805956
  O  O46  1  0.66968975  0.59150765  0.38927537  1 -0.299588
  O  O47  1  0.57017411  0.65799347  0.78470458  1 -0.773552
  O  O48  1  0.53454585  0.51318925  0.81578942  1 -0.633761
  O  O49  1  0.16172293  0.62306077  0.71871631  1 -0.334099
  O  O50  1  0.37911906  0.65380558  0.00777876  1 -0.745254
  O  O51  1  0.25386933  0.67747049  0.33529720  1 -0.697092
  O  O52  1  0.29768028  0.39011642  0.32971405  1 -0.360905
  O  O53  1  0.42788110  0.32046008  -0.08690735  1 -0.658247
  O  O54  1  0.39631238  0.46354914  0.04843787  1 -0.318189
  O  O55  1  0.82429604  0.37779769  0.18046998  1 -0.320638
  O  O56  1  0.63316766  0.38345996  0.57751071  1 -0.719823
  O  O57  1  0.65383571  0.29726083  0.08913680  1 -0.805956
