# generated using pymatgen
data_AlC8O4F
_symmetry_space_group_name_H-M   'P 1'
_cell_length_a   6.70969736
_cell_length_b   16.73919399
_cell_length_c   13.19958531
_cell_angle_alpha   90.00000000
_cell_angle_beta   90.00000000
_cell_angle_gamma   90.00000000
_symmetry_Int_Tables_number   1
_chemical_formula_structural   AlC8O4F
_chemical_formula_sum   'Al4 C32 O16 F4'
_cell_volume   1482.51044316
_cell_formula_units_Z   4
loop_
 _symmetry_equiv_pos_site_id
 _symmetry_equiv_pos_as_xyz
  1  'x, y, z'
loop_
 _atom_site_type_symbol
 _atom_site_label
 _atom_site_symmetry_multiplicity
 _atom_site_fract_x
 _atom_site_fract_y
 _atom_site_fract_z
 _atom_site_occupancy
 _atom_site_charge
  Al  Al0  1  0.25000000  0.25000000  0.75000000  1 1.615434
  Al  Al1  1  0.75000000  0.25000000  0.75000000  1 1.615437
  Al  Al2  1  0.75000000  0.75000000  0.25000000  1 1.615434
  Al  Al3  1  0.25000000  0.75000000  0.25000000  1 1.615437
  C  C4  1  0.83205545  0.02979077  0.97137192  1 -0.010144
  C  C5  1  0.33205545  0.52979077  0.47137192  1 -0.010144
  C  C6  1  0.16794455  0.47020923  0.97137192  1 -0.010144
  C  C7  1  0.66794455  0.97020923  0.47137192  1 -0.010144
  C  C8  1  0.16794455  0.52979077  0.02862808  1 -0.01007
  C  C9  1  0.66794455  0.02979077  0.52862808  1 -0.01007
  C  C10  1  0.83205545  0.97020923  0.02862808  1 -0.01007
  C  C11  1  0.33205545  0.47020923  0.52862808  1 -0.01007
  C  C12  1  0.16794455  0.97020923  0.02862808  1 -0.010145
  C  C13  1  0.66794455  0.47020923  0.52862808  1 -0.010145
  C  C14  1  0.83205545  0.52979077  0.02862808  1 -0.010145
  C  C15  1  0.33205545  0.02979077  0.52862808  1 -0.010145
  C  C16  1  0.83205545  0.47020923  0.97137192  1 -0.01007
  C  C17  1  0.33205545  0.97020923  0.47137192  1 -0.01007
  C  C18  1  0.16794455  0.02979077  0.97137192  1 -0.01007
  C  C19  1  0.66794455  0.52979077  0.47137192  1 -0.01007
  C  C20  1  -0.00000000  0.07045116  0.93271801  1 0.008702
  C  C21  1  -0.00000000  0.14135482  0.86614118  1 0.650134
  C  C22  1  0.50000000  0.57045116  0.43271801  1 0.008702
  C  C23  1  0.50000000  0.64135482  0.36614118  1 0.650134
  C  C24  1  -0.00000000  0.42954884  0.93271801  1 0.008702
  C  C25  1  -0.00000000  0.35864518  0.86614118  1 0.650134
  C  C26  1  0.50000000  0.92954884  0.43271801  1 0.008702
  C  C27  1  0.50000000  0.85864518  0.36614118  1 0.650134
  C  C28  1  -0.00000000  0.57045116  0.06728199  1 0.008702
  C  C29  1  -0.00000000  0.64135482  0.13385882  1 0.650134
  C  C30  1  0.50000000  0.07045116  0.56728199  1 0.008702
  C  C31  1  0.50000000  0.14135482  0.63385882  1 0.650134
  C  C32  1  -0.00000000  0.92954884  0.06728199  1 0.008702
  C  C33  1  -0.00000000  0.85864518  0.13385882  1 0.650134
  C  C34  1  0.50000000  0.42954884  0.56728199  1 0.008702
  C  C35  1  0.50000000  0.35864518  0.63385882  1 0.650134
  O  O36  1  0.17018267  0.16857596  0.84126630  1 -0.588016
  O  O37  1  0.67018267  0.66857596  0.34126630  1 -0.588016
  O  O38  1  0.82981733  0.33142404  0.84126630  1 -0.588016
  O  O39  1  0.32981733  0.83142404  0.34126630  1 -0.588016
  O  O40  1  0.82981733  0.66857596  0.15873370  1 -0.588013
  O  O41  1  0.32981733  0.16857596  0.65873370  1 -0.588013
  O  O42  1  0.17018267  0.83142404  0.15873370  1 -0.588013
  O  O43  1  0.67018267  0.33142404  0.65873370  1 -0.588013
  O  O44  1  0.82981733  0.83142404  0.15873370  1 -0.588016
  O  O45  1  0.32981733  0.33142404  0.65873370  1 -0.588016
  O  O46  1  0.17018267  0.66857596  0.15873370  1 -0.588016
  O  O47  1  0.67018267  0.16857596  0.65873370  1 -0.588016
  O  O48  1  0.17018267  0.33142404  0.84126630  1 -0.588013
  O  O49  1  0.67018267  0.83142404  0.34126630  1 -0.588013
  O  O50  1  0.82981733  0.16857596  0.84126630  1 -0.588013
  O  O51  1  0.32981733  0.66857596  0.34126630  1 -0.588013
  F  F52  1  -0.00000000  0.25000000  0.69107319  1 -0.540621
  F  F53  1  0.50000000  0.75000000  0.19107319  1 -0.540621
  F  F54  1  -0.00000000  0.75000000  0.30892681  1 -0.540621
  F  F55  1  0.50000000  0.25000000  0.80892681  1 -0.540621
