# generated using pymatgen
data_AlC8O4F
_symmetry_space_group_name_H-M   'P 1'
_cell_length_a   6.70445584
_cell_length_b   16.78152297
_cell_length_c   13.14231937
_cell_angle_alpha   89.99983328
_cell_angle_beta   90.00000738
_cell_angle_gamma   90.00001688
_symmetry_Int_Tables_number   1
_chemical_formula_structural   AlC8O4F
_chemical_formula_sum   'Al4 C32 O16 F4'
_cell_volume   1478.65522689
_cell_formula_units_Z   4
loop_
 _symmetry_equiv_pos_site_id
 _symmetry_equiv_pos_as_xyz
  1  'x, y, z'
loop_
 _atom_site_type_symbol
 _atom_site_label
 _atom_site_symmetry_multiplicity
 _atom_site_fract_x
 _atom_site_fract_y
 _atom_site_fract_z
 _atom_site_occupancy
 _atom_site_charge
  Al  Al0  1  0.24999961  0.24999911  0.75000061  1 1.614024
  Al  Al1  1  0.75000041  0.24999912  0.75000064  1 1.614048
  Al  Al2  1  0.75000039  0.75000089  0.24999939  1 1.614035
  Al  Al3  1  0.24999959  0.75000089  0.24999936  1 1.614047
  C  C4  1  0.83218811  0.02981423  0.97143832  1 -0.009701
  C  C5  1  0.33218867  0.52981371  0.47143883  1 -0.009759
  C  C6  1  0.16781192  0.47018572  0.97143828  1 -0.009714
  C  C7  1  0.66781190  0.97018561  0.47143818  1 -0.009708
  C  C8  1  0.16781176  0.52981421  0.02856165  1 -0.009697
  C  C9  1  0.66781174  0.02981431  0.52856175  1 -0.009597
  C  C10  1  0.83218805  0.97018578  0.02856167  1 -0.009642
  C  C11  1  0.33218875  0.47018634  0.52856112  1 -0.009655
  C  C12  1  0.16781188  0.97018577  0.02856167  1 -0.009701
  C  C13  1  0.66781133  0.47018629  0.52856117  1 -0.009763
  C  C14  1  0.83218809  0.52981428  0.02856172  1 -0.009718
  C  C15  1  0.33218810  0.02981439  0.52856182  1 -0.009709
  C  C16  1  0.83218823  0.47018579  0.97143834  1 -0.0097
  C  C17  1  0.33218827  0.97018569  0.47143825  1 -0.009598
  C  C18  1  0.16781196  0.02981422  0.97143833  1 -0.009643
  C  C19  1  0.66781125  0.52981365  0.47143889  1 -0.009657
  C  C20  1  -0.00000002  0.07045949  0.93271868  1 0.008244
  C  C21  1  -0.00000004  0.14142674  0.86623397  1 0.649312
  C  C22  1  0.49999996  0.57045940  0.43271879  1 0.008401
  C  C23  1  0.50000001  0.64142771  0.36623311  1 0.649136
  C  C24  1  0.00000004  0.42954047  0.93271870  1 0.008357
  C  C25  1  -0.00000004  0.35857283  0.86623369  1 0.649351
  C  C26  1  0.50000007  0.92954050  0.43271862  1 0.008237
  C  C27  1  0.49999998  0.85857314  0.36623378  1 0.649299
  C  C28  1  -0.00000004  0.57045954  0.06728130  1 0.008357
  C  C29  1  0.00000003  0.64142717  0.13376631  1 0.649349
  C  C30  1  0.49999993  0.07045950  0.56728138  1 0.008237
  C  C31  1  0.50000003  0.14142686  0.63376622  1 0.649316
  C  C32  1  0.00000002  0.92954051  0.06728133  1 0.008243
  C  C33  1  0.00000004  0.85857326  0.13376603  1 0.649315
  C  C34  1  0.50000005  0.42954060  0.56728121  1 0.008401
  C  C35  1  0.50000000  0.35857229  0.63376689  1 0.649139
  O  O36  1  0.17024117  0.16875854  0.84149503  1 -0.587646
  O  O37  1  0.67024075  0.66875771  0.34149574  1 -0.58757
  O  O38  1  0.82975869  0.33124191  0.84149516  1 -0.587661
  O  O39  1  0.32975879  0.83124150  0.34149527  1 -0.587655
  O  O40  1  0.82975859  0.66875808  0.15850483  1 -0.587653
  O  O41  1  0.32975878  0.16875850  0.65850473  1 -0.587659
  O  O42  1  0.17024113  0.83124146  0.15850497  1 -0.587651
  O  O43  1  0.67024081  0.33124230  0.65850426  1 -0.587572
  O  O44  1  0.82975882  0.83124146  0.15850497  1 -0.587651
  O  O45  1  0.32975923  0.33124230  0.65850426  1 -0.587574
  O  O46  1  0.17024132  0.66875809  0.15850484  1 -0.58766
  O  O47  1  0.67024119  0.16875850  0.65850473  1 -0.587662
  O  O48  1  0.17024142  0.33124192  0.84149518  1 -0.587651
  O  O49  1  0.67024123  0.83124150  0.34149527  1 -0.587653
  O  O50  1  0.82975887  0.16875854  0.84149503  1 -0.58765
  O  O51  1  0.32975919  0.66875770  0.34149574  1 -0.587572
  F  F52  1  -0.00000000  0.25000023  0.69084673  1 -0.539949
  F  F53  1  0.50000001  0.74999976  0.19084713  1 -0.539922
  F  F54  1  0.00000000  0.74999977  0.30915327  1 -0.53995
  F  F55  1  0.49999999  0.25000024  0.80915288  1 -0.539921
