# generated using pymatgen
data_ZnH18C28(N4O3)2
_symmetry_space_group_name_H-M   'P 1'
_cell_length_a   16.34138657
_cell_length_b   16.34138684
_cell_length_c   25.67836145
_cell_angle_alpha   90.00000000
_cell_angle_beta   90.00000000
_cell_angle_gamma   119.99986175
_symmetry_Int_Tables_number   1
_chemical_formula_structural   ZnH18C28(N4O3)2
_chemical_formula_sum   'Zn6 H108 C168 N48 O36'
_cell_volume   5938.49450582
_cell_formula_units_Z   6
loop_
 _symmetry_equiv_pos_site_id
 _symmetry_equiv_pos_as_xyz
  1  'x, y, z'
loop_
 _atom_site_type_symbol
 _atom_site_label
 _atom_site_symmetry_multiplicity
 _atom_site_fract_x
 _atom_site_fract_y
 _atom_site_fract_z
 _atom_site_occupancy
 _atom_site_charge
  Zn  Zn0  1  0.57522432  0.28761250  0.83333291  1 0.74535
  Zn  Zn1  1  0.71238750  0.42477568  0.16666709  1 0.74535
  Zn  Zn2  1  0.71238884  0.28761116  0.50000000  1 0.7455
  Zn  Zn3  1  0.42477568  0.71238750  0.83333291  1 0.74535
  Zn  Zn4  1  0.28761250  0.57522432  0.16666709  1 0.74535
  Zn  Zn5  1  0.28761116  0.71238884  0.50000000  1 0.7455
  H  H6  1  0.35620373  0.42402454  0.79576996  1 0.131573
  H  H7  1  0.28833913  0.46867333  0.85975688  1 0.287941
  H  H8  1  0.46441405  0.36391229  0.77324042  1 0.093101
  H  H9  1  0.50470761  0.32644283  0.92930076  1 0.094084
  H  H10  1  0.39804553  0.38342669  0.95807103  1 0.144859
  H  H11  1  0.17471461  0.47731597  0.85507695  1 0.099273
  H  H12  1  0.18073657  0.46185178  0.02288961  1 0.081307
  H  H13  1  0.78860948  0.18008867  0.91652951  1 0.101998
  H  H14  1  0.06782062  0.64379731  0.12910100  1 0.131511
  H  H15  1  0.18033368  0.71166254  0.19308804  1 0.287935
  H  H16  1  0.89949885  0.53558644  0.10657175  1 0.093138
  H  H17  1  0.82173623  0.49529172  0.26263257  1 0.094068
  H  H18  1  0.98538228  0.60195498  0.29140271  1 0.14481
  H  H19  1  0.30260010  0.82528504  0.18840766  1 0.099246
  H  H20  1  0.28111732  0.81926369  0.35622041  1 0.081283
  H  H21  1  0.39148025  0.21139193  0.24986123  1 0.101968
  H  H22  1  0.57597564  0.93217821  0.46243878  1 0.131561
  H  H23  1  0.53132732  0.81966692  0.52642592  1 0.287951
  H  H24  1  0.63608829  0.10049989  0.43990804  1 0.093102
  H  H25  1  0.67355820  0.17826665  0.59596771  1 0.094045
  H  H26  1  0.61657345  0.01462137  0.62473925  1 0.144876
  H  H27  1  0.52268132  0.69739839  0.52174547  1 0.099284
  H  H28  1  0.53815027  0.71888461  0.68955800  1 0.081288
  H  H29  1  0.81991584  0.60852795  0.58319800  1 0.102106
  H  H30  1  0.64379627  0.57597546  0.79576996  1 0.131572
  H  H31  1  0.71166087  0.53132667  0.85975688  1 0.287941
  H  H32  1  0.53558595  0.63608771  0.77324042  1 0.093101
  H  H33  1  0.49529239  0.67355717  0.92930076  1 0.094084
  H  H34  1  0.60195447  0.61657331  0.95807103  1 0.144859
  H  H35  1  0.82528539  0.52268403  0.85507695  1 0.099273
  H  H36  1  0.81926343  0.53814822  0.02288961  1 0.081308
  H  H37  1  0.21139052  0.81991133  0.91652951  1 0.101998
  H  H38  1  0.93217938  0.35620269  0.12910100  1 0.131511
  H  H39  1  0.81966632  0.28833746  0.19308804  1 0.287935
  H  H40  1  0.10050115  0.46441356  0.10657175  1 0.093138
  H  H41  1  0.17826377  0.50470828  0.26263257  1 0.094068
  H  H42  1  0.01461772  0.39804502  0.29140271  1 0.14481
  H  H43  1  0.69739990  0.17471496  0.18840766  1 0.099246
  H  H44  1  0.71888268  0.18073631  0.35622041  1 0.081284
  H  H45  1  0.60851975  0.78860807  0.24986123  1 0.101968
  H  H46  1  0.42402436  0.06782179  0.46243878  1 0.131561
  H  H47  1  0.46867268  0.18033308  0.52642592  1 0.287951
  H  H48  1  0.36391171  0.89950011  0.43990804  1 0.093102
  H  H49  1  0.32644180  0.82173335  0.59596771  1 0.094045
  H  H50  1  0.38342655  0.98537863  0.62473925  1 0.144876
  H  H51  1  0.47731868  0.30260161  0.52174547  1 0.099284
  H  H52  1  0.46184973  0.28111539  0.68955800  1 0.081289
  H  H53  1  0.18008416  0.39147205  0.58319800  1 0.102106
  H  H54  1  0.93217821  0.57597564  0.53756122  1 0.131561
  H  H55  1  0.81966692  0.53132732  0.47357408  1 0.287951
  H  H56  1  0.10049989  0.63608829  0.56009196  1 0.093102
  H  H57  1  0.17826665  0.67355820  0.40403229  1 0.094046
  H  H58  1  0.01462137  0.61657345  0.37526075  1 0.144876
  H  H59  1  0.69739839  0.52268132  0.47825453  1 0.099284
  H  H60  1  0.71888461  0.53815027  0.31044200  1 0.081288
  H  H61  1  0.60852795  0.81991584  0.41680200  1 0.102106
  H  H62  1  0.42402454  0.35620373  0.20423004  1 0.131573
  H  H63  1  0.46867333  0.28833913  0.14024312  1 0.287941
  H  H64  1  0.36391229  0.46441405  0.22675958  1 0.0931
  H  H65  1  0.32644283  0.50470761  0.07069924  1 0.094084
  H  H66  1  0.38342669  0.39804553  0.04192897  1 0.144859
  H  H67  1  0.47731597  0.17471461  0.14492305  1 0.099274
  H  H68  1  0.46185178  0.18073657  0.97711039  1 0.081307
  H  H69  1  0.18008867  0.78860948  0.08347049  1 0.101999
  H  H70  1  0.64379731  0.06782062  0.87089900  1 0.131511
  H  H71  1  0.71166254  0.18033368  0.80691196  1 0.287935
  H  H72  1  0.53558644  0.89949885  0.89342825  1 0.093138
  H  H73  1  0.49529172  0.82173623  0.73736743  1 0.094068
  H  H74  1  0.60195498  0.98538228  0.70859729  1 0.14481
  H  H75  1  0.82528504  0.30260010  0.81159234  1 0.099247
  H  H76  1  0.81926369  0.28111732  0.64377959  1 0.081283
  H  H77  1  0.21139193  0.39148025  0.75013877  1 0.101969
  H  H78  1  0.06782179  0.42402436  0.53756122  1 0.131561
  H  H79  1  0.18033308  0.46867268  0.47357408  1 0.287951
  H  H80  1  0.89950011  0.36391171  0.56009196  1 0.093102
  H  H81  1  0.82173335  0.32644180  0.40403229  1 0.094046
  H  H82  1  0.98537863  0.38342655  0.37526075  1 0.144876
  H  H83  1  0.30260161  0.47731868  0.47825453  1 0.099284
  H  H84  1  0.28111539  0.46184973  0.31044200  1 0.081289
  H  H85  1  0.39147205  0.18008416  0.41680200  1 0.102106
  H  H86  1  0.57597546  0.64379627  0.20423004  1 0.131573
  H  H87  1  0.53132667  0.71166087  0.14024312  1 0.287941
  H  H88  1  0.63608771  0.53558595  0.22675958  1 0.093101
  H  H89  1  0.67355717  0.49529239  0.07069924  1 0.094084
  H  H90  1  0.61657331  0.60195447  0.04192897  1 0.144859
  H  H91  1  0.52268403  0.82528539  0.14492305  1 0.099274
  H  H92  1  0.53814822  0.81926343  0.97711039  1 0.081308
  H  H93  1  0.81991133  0.21139052  0.08347049  1 0.101999
  H  H94  1  0.35620269  0.93217938  0.87089900  1 0.131511
  H  H95  1  0.28833746  0.81966632  0.80691196  1 0.287935
  H  H96  1  0.46441356  0.10050115  0.89342825  1 0.093138
  H  H97  1  0.50470828  0.17826377  0.73736743  1 0.094068
  H  H98  1  0.39804502  0.01461772  0.70859729  1 0.14481
  H  H99  1  0.17471496  0.69739990  0.81159234  1 0.099247
  H  H100  1  0.18073631  0.71888268  0.64377959  1 0.081284
  H  H101  1  0.78860807  0.60851975  0.75013877  1 0.101969
  H  H102  1  0.67300169  0.32699831  0.00000000  1 0.112818
  H  H103  1  0.84899671  0.15100329  0.00000000  1 0.102962
  H  H104  1  0.65399339  0.32699710  0.33333562  1 0.112699
  H  H105  1  0.30200437  0.15100192  0.33333032  1 0.102921
  H  H106  1  0.67300290  0.34600661  0.66666438  1 0.112699
  H  H107  1  0.84899808  0.69799563  0.66666968  1 0.102921
  H  H108  1  0.32699831  0.67300169  0.00000000  1 0.112818
  H  H109  1  0.15100329  0.84899671  0.00000000  1 0.102953
  H  H110  1  0.34600661  0.67300290  0.33333562  1 0.112699
  H  H111  1  0.69799563  0.84899808  0.33333032  1 0.102912
  H  H112  1  0.32699710  0.65399339  0.66666438  1 0.112699
  H  H113  1  0.15100192  0.30200437  0.66666968  1 0.102912
  C  C114  1  0.36675614  0.40806573  0.87933570  1 0.297978
  C  C115  1  0.38689038  0.40183792  0.82645636  1 -0.229633
  C  C116  1  0.04222421  0.49355985  0.94424012  1 0.28261
  C  C117  1  0.26797717  0.44173397  0.93930942  1 0.493413
  C  C118  1  0.44708736  0.36824125  0.81381136  1 0.097647
  C  C119  1  0.19025651  0.46466957  0.93892569  1 -0.124813
  C  C120  1  0.46963160  0.34759835  0.90070969  1 0.108661
  C  C121  1  0.41040743  0.38032862  0.91695861  1 -0.219613
  C  C122  1  0.14906949  0.47800552  0.89423845  1 0.107808
  C  C123  1  0.68517215  0.26393807  0.90332306  1 0.579116
  C  C124  1  0.15064053  0.46967403  0.98652127  1 0.113966
  C  C125  1  0.72548941  0.25330595  0.95335565  1 -0.041725
  C  C126  1  0.77657048  0.20526253  0.95343552  1 -0.075138
  C  C127  1  0.04130912  0.63324426  0.21266717  1 0.298093
  C  C128  1  0.01494753  0.61311045  0.15978757  1 -0.229516
  C  C129  1  0.45133559  0.95777602  0.27757032  1 0.282726
  C  C130  1  0.17375649  0.73202299  0.27264206  1 0.493717
  C  C131  1  0.92115340  0.55291265  0.14714296  1 0.097498
  C  C132  1  0.27441363  0.80974383  0.27225614  1 -0.124842
  C  C133  1  0.87796725  0.53036831  0.23404123  1 0.108696
  C  C134  1  0.96992172  0.58959300  0.25029019  1 -0.21963
  C  C135  1  0.32893630  0.85093029  0.22756904  1 0.107977
  C  C136  1  0.57876648  0.31482883  0.23665638  1 0.579121
  C  C137  1  0.31903476  0.84935955  0.31985191  1 0.113961
  C  C138  1  0.52781609  0.27451072  0.28668895  1 -0.041891
  C  C139  1  0.42869167  0.22343013  0.28676768  1 -0.074979
  C  C140  1  0.59193427  0.95869147  0.54600445  1 0.29807
  C  C141  1  0.59816227  0.98505157  0.49312470  1 -0.229551
  C  C142  1  0.50644016  0.54866431  0.61090803  1 0.282544
  C  C143  1  0.55826582  0.82624504  0.60598006  1 0.493492
  C  C144  1  0.63175937  0.07884526  0.48047895  1 0.097537
  C  C145  1  0.53532979  0.72558694  0.60559411  1 -0.124783
  C  C146  1  0.65240228  0.12203418  0.56737711  1 0.108769
  C  C147  1  0.61967155  0.03007996  0.58362661  1 -0.219731
  C  C148  1  0.52199252  0.67106396  0.56090718  1 0.107874
  C  C149  1  0.73606650  0.42124251  0.56998822  1 0.579173
  C  C150  1  0.53032742  0.68096667  0.65318989  1 0.113936
  C  C151  1  0.74669640  0.47218865  0.62002205  1 -0.04175
  C  C152  1  0.79474054  0.57131335  0.62010329  1 -0.075565
  C  C153  1  0.63324386  0.59193427  0.87933570  1 0.297979
  C  C154  1  0.61310962  0.59816208  0.82645636  1 -0.229633
  C  C155  1  0.95777579  0.50644015  0.94424012  1 0.28261
  C  C156  1  0.73202283  0.55826603  0.93930942  1 0.493413
  C  C157  1  0.55291264  0.63175875  0.81381136  1 0.097647
  C  C158  1  0.80974349  0.53533043  0.93892569  1 -0.124813
  C  C159  1  0.53036840  0.65240165  0.90070969  1 0.108662
  C  C160  1  0.58959257  0.61967138  0.91695861  1 -0.219613
  C  C161  1  0.85093051  0.52199448  0.89423845  1 0.107808
  C  C162  1  0.31482785  0.73606193  0.90332306  1 0.579117
  C  C163  1  0.84935947  0.53032597  0.98652127  1 0.113966
  C  C164  1  0.27451059  0.74669405  0.95335565  1 -0.041725
  C  C165  1  0.22342952  0.79473747  0.95343552  1 -0.075139
  C  C166  1  0.95869088  0.36675574  0.21266717  1 0.298094
  C  C167  1  0.98505247  0.38688955  0.15978757  1 -0.229515
  C  C168  1  0.54866441  0.04222398  0.27757032  1 0.282726
  C  C169  1  0.82624351  0.26797701  0.27264206  1 0.493717
  C  C170  1  0.07884660  0.44708735  0.14714296  1 0.097498
  C  C171  1  0.72558637  0.19025617  0.27225614  1 -0.124841
  C  C172  1  0.12203275  0.46963169  0.23404123  1 0.108696
  C  C173  1  0.03007828  0.41040700  0.25029019  1 -0.21963
  C  C174  1  0.67106370  0.14906971  0.22756904  1 0.107977
  C  C175  1  0.42123352  0.68517117  0.23665638  1 0.579121
  C  C176  1  0.68096524  0.15064045  0.31985191  1 0.113961
  C  C177  1  0.47218391  0.72548928  0.28668895  1 -0.041891
  C  C178  1  0.57130833  0.77656987  0.28676768  1 -0.07498
  C  C179  1  0.40806573  0.04130853  0.54600445  1 0.29807
  C  C180  1  0.40183773  0.01494843  0.49312470  1 -0.229551
  C  C181  1  0.49355984  0.45133569  0.61090803  1 0.282544
  C  C182  1  0.44173418  0.17375496  0.60598006  1 0.493492
  C  C183  1  0.36824063  0.92115474  0.48047895  1 0.097537
  C  C184  1  0.46467021  0.27441306  0.60559411  1 -0.124783
  C  C185  1  0.34759772  0.87796582  0.56737711  1 0.10877
  C  C186  1  0.38032845  0.96992004  0.58362661  1 -0.219731
  C  C187  1  0.47800748  0.32893604  0.56090718  1 0.107874
  C  C188  1  0.26393350  0.57875749  0.56998822  1 0.579173
  C  C189  1  0.46967258  0.31903333  0.65318989  1 0.113936
  C  C190  1  0.25330360  0.52781135  0.62002205  1 -0.04175
  C  C191  1  0.20525946  0.42868665  0.62010329  1 -0.075566
  C  C192  1  0.95869147  0.59193427  0.45399555  1 0.298069
  C  C193  1  0.98505157  0.59816227  0.50687530  1 -0.229552
  C  C194  1  0.54866431  0.50644016  0.38909197  1 0.282544
  C  C195  1  0.82624504  0.55826582  0.39401994  1 0.493492
  C  C196  1  0.07884526  0.63175937  0.51952105  1 0.097538
  C  C197  1  0.72558694  0.53532979  0.39440589  1 -0.124783
  C  C198  1  0.12203418  0.65240228  0.43262289  1 0.10877
  C  C199  1  0.03007996  0.61967155  0.41637339  1 -0.219731
  C  C200  1  0.67106396  0.52199252  0.43909282  1 0.107874
  C  C201  1  0.42124251  0.73606650  0.43001178  1 0.579173
  C  C202  1  0.68096667  0.53032742  0.34681011  1 0.113936
  C  C203  1  0.47218865  0.74669640  0.37997795  1 -0.04175
  C  C204  1  0.57131335  0.79474054  0.37989671  1 -0.075566
  C  C205  1  0.40806573  0.36675614  0.12066430  1 0.297979
  C  C206  1  0.40183792  0.38689038  0.17354364  1 -0.229634
  C  C207  1  0.49355985  0.04222421  0.05575988  1 0.282609
  C  C208  1  0.44173397  0.26797717  0.06069058  1 0.493412
  C  C209  1  0.36824125  0.44708736  0.18618864  1 0.09765
  C  C210  1  0.46466957  0.19025651  0.06107431  1 -0.124813
  C  C211  1  0.34759835  0.46963160  0.09929031  1 0.108662
  C  C212  1  0.38032862  0.41040743  0.08304139  1 -0.219613
  C  C213  1  0.47800552  0.14906949  0.10576155  1 0.107809
  C  C214  1  0.26393807  0.68517215  0.09667694  1 0.579116
  C  C215  1  0.46967403  0.15064053  0.01347873  1 0.113966
  C  C216  1  0.25330595  0.72548941  0.04664435  1 -0.041725
  C  C217  1  0.20526253  0.77657048  0.04656448  1 -0.075139
  C  C218  1  0.63324426  0.04130912  0.78733283  1 0.298094
  C  C219  1  0.61311045  0.01494753  0.84021243  1 -0.229516
  C  C220  1  0.95777602  0.45133559  0.72242968  1 0.282726
  C  C221  1  0.73202299  0.17375649  0.72735794  1 0.493717
  C  C222  1  0.55291265  0.92115340  0.85285704  1 0.097499
  C  C223  1  0.80974383  0.27441363  0.72774386  1 -0.124841
  C  C224  1  0.53036831  0.87796725  0.76595877  1 0.108696
  C  C225  1  0.58959300  0.96992172  0.74970981  1 -0.219631
  C  C226  1  0.85093029  0.32893630  0.77243096  1 0.107977
  C  C227  1  0.31482883  0.57876648  0.76334362  1 0.579121
  C  C228  1  0.84935955  0.31903476  0.68014809  1 0.113961
  C  C229  1  0.27451072  0.52781609  0.71331105  1 -0.041891
  C  C230  1  0.22343013  0.42869167  0.71323232  1 -0.07498
  C  C231  1  0.04130853  0.40806573  0.45399555  1 0.29807
  C  C232  1  0.01494843  0.40183773  0.50687530  1 -0.229551
  C  C233  1  0.45133569  0.49355984  0.38909197  1 0.282544
  C  C234  1  0.17375496  0.44173418  0.39401994  1 0.493492
  C  C235  1  0.92115474  0.36824063  0.51952105  1 0.097538
  C  C236  1  0.27441306  0.46467021  0.39440589  1 -0.124783
  C  C237  1  0.87796582  0.34759772  0.43262289  1 0.10877
  C  C238  1  0.96992004  0.38032845  0.41637339  1 -0.219731
  C  C239  1  0.32893604  0.47800748  0.43909282  1 0.107875
  C  C240  1  0.57875749  0.26393350  0.43001178  1 0.579173
  C  C241  1  0.31903333  0.46967258  0.34681011  1 0.113936
  C  C242  1  0.52781135  0.25330360  0.37997795  1 -0.04175
  C  C243  1  0.42868665  0.20525946  0.37989671  1 -0.075565
  C  C244  1  0.59193427  0.63324386  0.12066430  1 0.297979
  C  C245  1  0.59816208  0.61310962  0.17354364  1 -0.229633
  C  C246  1  0.50644015  0.95777579  0.05575988  1 0.28261
  C  C247  1  0.55826603  0.73202283  0.06069058  1 0.493412
  C  C248  1  0.63175875  0.55291264  0.18618864  1 0.09765
  C  C249  1  0.53533043  0.80974349  0.06107431  1 -0.124813
  C  C250  1  0.65240165  0.53036840  0.09929031  1 0.108662
  C  C251  1  0.61967138  0.58959257  0.08304139  1 -0.219613
  C  C252  1  0.52199448  0.85093051  0.10576155  1 0.107809
  C  C253  1  0.73606193  0.31482785  0.09667694  1 0.579117
  C  C254  1  0.53032597  0.84935947  0.01347873  1 0.113966
  C  C255  1  0.74669405  0.27451059  0.04664435  1 -0.041725
  C  C256  1  0.79473747  0.22342952  0.04656448  1 -0.075138
  C  C257  1  0.36675574  0.95869088  0.78733283  1 0.298094
  C  C258  1  0.38688955  0.98505247  0.84021243  1 -0.229516
  C  C259  1  0.04222398  0.54866441  0.72242968  1 0.282726
  C  C260  1  0.26797701  0.82624351  0.72735794  1 0.493717
  C  C261  1  0.44708735  0.07884660  0.85285704  1 0.097499
  C  C262  1  0.19025617  0.72558637  0.72774386  1 -0.124841
  C  C263  1  0.46963169  0.12203275  0.76595877  1 0.108697
  C  C264  1  0.41040700  0.03007828  0.74970981  1 -0.21963
  C  C265  1  0.14906971  0.67106370  0.77243096  1 0.107977
  C  C266  1  0.68517117  0.42123352  0.76334362  1 0.579121
  C  C267  1  0.15064045  0.68096524  0.68014809  1 0.113961
  C  C268  1  0.72548928  0.47218391  0.71331105  1 -0.041891
  C  C269  1  0.77656987  0.57130833  0.71323232  1 -0.07498
  C  C270  1  0.71141998  0.28858002  0.00000000  1 -0.091351
  C  C271  1  0.81043676  0.18956324  0.00000000  1 -0.08705
  C  C272  1  0.57715688  0.28857876  0.33333426  1 -0.091067
  C  C273  1  0.37912424  0.18956186  0.33333140  1 -0.086905
  C  C274  1  0.71142124  0.42284312  0.66666574  1 -0.091067
  C  C275  1  0.81043814  0.62087576  0.66666860  1 -0.086905
  C  C276  1  0.28858002  0.71141998  0.00000000  1 -0.091351
  C  C277  1  0.18956324  0.81043676  0.00000000  1 -0.087047
  C  C278  1  0.42284312  0.71142124  0.33333426  1 -0.091067
  C  C279  1  0.62087576  0.81043814  0.33333140  1 -0.086903
  C  C280  1  0.28857876  0.57715688  0.66666574  1 -0.091067
  C  C281  1  0.18956186  0.37912424  0.66666860  1 -0.086903
  N  N282  1  0.48831529  0.34090957  0.85017248  1 -0.262218
  N  N283  1  0.30473906  0.44010589  0.89110737  1 -0.379101
  N  N284  1  0.07646833  0.49320489  0.89673678  1 -0.272768
  N  N285  1  0.07677150  0.48342408  0.98999275  1 -0.317373
  N  N286  1  0.85259445  0.51168417  0.18350414  1 -0.262164
  N  N287  1  0.13536706  0.69526274  0.22443864  1 -0.379371
  N  N288  1  0.41673588  0.92353184  0.23006676  1 -0.273008
  N  N289  1  0.40665336  0.92322841  0.32332284  1 -0.317358
  N  N290  1  0.65909069  0.14740521  0.51683956  1 -0.262223
  N  N291  1  0.55989379  0.86463337  0.55777619  1 -0.3792
  N  N292  1  0.50679386  0.58326391  0.56340483  1 -0.272788
  N  N293  1  0.51657769  0.59334790  0.65666061  1 -0.317341
  N  N294  1  0.51168471  0.65909043  0.85017248  1 -0.262218
  N  N295  1  0.69526094  0.55989411  0.89110737  1 -0.379101
  N  N296  1  0.92353167  0.50679511  0.89673678  1 -0.272768
  N  N297  1  0.92322850  0.51657592  0.98999275  1 -0.317373
  N  N298  1  0.14740555  0.48831583  0.18350414  1 -0.262164
  N  N299  1  0.86463294  0.30473726  0.22443864  1 -0.379371
  N  N300  1  0.58326412  0.07646816  0.23006676  1 -0.273007
  N  N301  1  0.59334664  0.07677159  0.32332284  1 -0.317358
  N  N302  1  0.34090931  0.85259479  0.51683956  1 -0.262223
  N  N303  1  0.44010621  0.13536663  0.55777619  1 -0.3792
  N  N304  1  0.49320614  0.41673609  0.56340483  1 -0.272787
  N  N305  1  0.48342231  0.40665210  0.65666061  1 -0.317341
  N  N306  1  0.14740521  0.65909069  0.48316044  1 -0.262223
  N  N307  1  0.86463337  0.55989379  0.44222381  1 -0.3792
  N  N308  1  0.58326391  0.50679386  0.43659517  1 -0.272787
  N  N309  1  0.59334790  0.51657769  0.34333939  1 -0.31734
  N  N310  1  0.34090957  0.48831529  0.14982752  1 -0.262219
  N  N311  1  0.44010589  0.30473906  0.10889263  1 -0.379101
  N  N312  1  0.49320489  0.07646833  0.10326322  1 -0.272767
  N  N313  1  0.48342408  0.07677150  0.01000725  1 -0.317373
  N  N314  1  0.51168417  0.85259445  0.81649586  1 -0.262164
  N  N315  1  0.69526274  0.13536706  0.77556136  1 -0.379371
  N  N316  1  0.92353184  0.41673588  0.76993324  1 -0.273007
  N  N317  1  0.92322841  0.40665336  0.67667716  1 -0.317358
  N  N318  1  0.85259479  0.34090931  0.48316044  1 -0.262223
  N  N319  1  0.13536663  0.44010621  0.44222381  1 -0.3792
  N  N320  1  0.41673609  0.49320614  0.43659517  1 -0.272787
  N  N321  1  0.40665210  0.48342231  0.34333939  1 -0.317341
  N  N322  1  0.65909043  0.51168471  0.14982752  1 -0.262219
  N  N323  1  0.55989411  0.69526094  0.10889263  1 -0.379101
  N  N324  1  0.50679511  0.92353167  0.10326322  1 -0.272767
  N  N325  1  0.51657592  0.92322850  0.01000725  1 -0.317373
  N  N326  1  0.48831583  0.14740555  0.81649586  1 -0.262164
  N  N327  1  0.30473726  0.86463294  0.77556136  1 -0.379371
  N  N328  1  0.07646816  0.58326412  0.76993324  1 -0.273007
  N  N329  1  0.07677159  0.59334664  0.67667716  1 -0.317358
  O  O330  1  0.62858140  0.29764483  0.90503564  1 -0.547164
  O  O331  1  0.70583359  0.23844482  0.86140368  1 -0.577101
  O  O332  1  0.29352362  0.42249320  0.98060337  1 -0.460019
  O  O333  1  0.66906369  0.37142016  0.23836932  1 -0.547197
  O  O334  1  0.53261227  0.29416672  0.19473691  1 -0.577063
  O  O335  1  0.12897253  0.70647621  0.31393449  1 -0.460134
  O  O336  1  0.70235505  0.33094417  0.57169936  1 -0.547258
  O  O337  1  0.76156592  0.46740042  0.52807057  1 -0.577057
  O  O338  1  0.57750175  0.87102712  0.64727129  1 -0.460066
  O  O339  1  0.37141860  0.70235517  0.90503564  1 -0.547164
  O  O340  1  0.29416641  0.76155518  0.86140368  1 -0.577101
  O  O341  1  0.70647638  0.57750680  0.98060337  1 -0.460019
  O  O342  1  0.33093631  0.62857984  0.23836932  1 -0.547197
  O  O343  1  0.46738773  0.70583328  0.19473691  1 -0.577063
  O  O344  1  0.87102747  0.29352379  0.31393449  1 -0.460134
  O  O345  1  0.29764495  0.66905583  0.57169936  1 -0.547258
  O  O346  1  0.23843408  0.53259958  0.52807057  1 -0.577057
  O  O347  1  0.42249825  0.12897288  0.64727129  1 -0.460066
  O  O348  1  0.33094417  0.70235505  0.42830064  1 -0.547258
  O  O349  1  0.46740042  0.76156592  0.47192943  1 -0.577057
  O  O350  1  0.87102712  0.57750175  0.35272871  1 -0.460066
  O  O351  1  0.29764483  0.62858140  0.09496436  1 -0.547164
  O  O352  1  0.23844482  0.70583359  0.13859632  1 -0.577101
  O  O353  1  0.42249320  0.29352362  0.01939663  1 -0.460019
  O  O354  1  0.37142016  0.66906369  0.76163068  1 -0.547197
  O  O355  1  0.29416672  0.53261227  0.80526309  1 -0.577063
  O  O356  1  0.70647621  0.12897253  0.68606551  1 -0.460134
  O  O357  1  0.66905583  0.29764495  0.42830064  1 -0.547258
  O  O358  1  0.53259958  0.23843408  0.47192943  1 -0.577057
  O  O359  1  0.12897288  0.42249825  0.35272871  1 -0.460066
  O  O360  1  0.70235517  0.37141860  0.09496436  1 -0.547164
  O  O361  1  0.76155518  0.29416641  0.13859632  1 -0.577101
  O  O362  1  0.57750680  0.70647638  0.01939663  1 -0.460019
  O  O363  1  0.62857984  0.33093631  0.76163068  1 -0.547197
  O  O364  1  0.70583328  0.46738773  0.80526309  1 -0.577063
  O  O365  1  0.29352379  0.87102747  0.68606551  1 -0.460134
