# generated using pymatgen
data_Zn4H24C42O13
_symmetry_space_group_name_H-M   'P 1'
_cell_length_a   17.25152571
_cell_length_b   17.25152532
_cell_length_c   17.32692863
_cell_angle_alpha   95.25995150
_cell_angle_beta   95.25995137
_cell_angle_gamma   95.08910602
_symmetry_Int_Tables_number   1
_chemical_formula_structural   Zn4H24C42O13
_chemical_formula_sum   'Zn8 H48 C84 O26'
_cell_volume   5088.83787321
_cell_formula_units_Z   2
loop_
 _symmetry_equiv_pos_site_id
 _symmetry_equiv_pos_as_xyz
  1  'x, y, z'
loop_
 _atom_site_type_symbol
 _atom_site_label
 _atom_site_symmetry_multiplicity
 _atom_site_fract_x
 _atom_site_fract_y
 _atom_site_fract_z
 _atom_site_occupancy
 _atom_site_charge
  Zn  Zn0  1  0.90585254  0.78259231  0.67478749  1 0.958572
  Zn  Zn1  1  0.78160710  0.90454783  0.67205349  1 0.958697
  Zn  Zn2  1  0.91908943  0.92151974  0.81683496  1 0.968404
  Zn  Zn3  1  0.77975797  0.78133963  0.79785506  1 0.959642
  Zn  Zn4  1  0.21740769  0.09414746  0.32521251  1 0.958572
  Zn  Zn5  1  0.09545217  0.21839290  0.32794651  1 0.958696
  Zn  Zn6  1  0.07848026  0.08091057  0.18316504  1 0.968404
  Zn  Zn7  1  0.21866037  0.22024203  0.20214494  1 0.959643
  H  H8  1  0.13367923  0.81289790  0.63129521  1 0.112483
  H  H9  1  0.27783440  0.81296921  0.62689445  1 0.102555
  H  H10  1  0.31537984  0.92413717  0.86199034  1 0.103541
  H  H11  1  0.17127578  0.92804943  0.86421783  1 0.115403
  H  H12  1  0.39447758  0.90768378  0.63039016  1 0.103995
  H  H13  1  0.53745146  0.89697650  0.62589943  1 0.113511
  H  H14  1  0.54835333  0.80133971  0.84650282  1 0.114105
  H  H15  1  0.40622501  0.81548187  0.85345671  1 0.104516
  H  H16  1  0.80067588  0.95172312  0.29644027  1 0.102866
  H  H17  1  0.79059266  0.94691739  0.43904746  1 0.109148
  H  H18  1  0.81295187  0.13416661  0.62787586  1 0.112813
  H  H19  1  0.81331601  0.27847966  0.62318198  1 0.103234
  H  H20  1  0.90371974  0.31543877  0.86511806  1 0.105983
  H  H21  1  0.90716595  0.17147239  0.86816909  1 0.112054
  H  H22  1  0.90831593  0.39527569  0.63434296  1 0.103652
  H  H23  1  0.90088503  0.53880484  0.63000213  1 0.113795
  H  H24  1  0.78768298  0.54866191  0.84083167  1 0.11313
  H  H25  1  0.79816370  0.40581409  0.84781384  1 0.103092
  H  H26  1  0.90520032  0.73393233  0.28792677  1 0.102846
  H  H27  1  0.89799925  0.73151496  0.43124335  1 0.109992
  H  H28  1  0.18710210  0.86632077  0.36870479  1 0.112483
  H  H29  1  0.18703079  0.72216560  0.37310555  1 0.102555
  H  H30  1  0.07586283  0.68462016  0.13800966  1 0.10354
  H  H31  1  0.07195057  0.82872422  0.13578217  1 0.115404
  H  H32  1  0.09231622  0.60552242  0.36960984  1 0.103995
  H  H33  1  0.10302350  0.46254854  0.37410057  1 0.113511
  H  H34  1  0.19866029  0.45164667  0.15349718  1 0.114105
  H  H35  1  0.18451813  0.59377499  0.14654329  1 0.104516
  H  H36  1  0.04827688  0.19932412  0.70355973  1 0.102866
  H  H37  1  0.05308261  0.20940734  0.56095254  1 0.109149
  H  H38  1  0.86583339  0.18704813  0.37212414  1 0.112814
  H  H39  1  0.72152034  0.18668399  0.37681802  1 0.103235
  H  H40  1  0.68456123  0.09628026  0.13488194  1 0.105983
  H  H41  1  0.82852761  0.09283405  0.13183091  1 0.112055
  H  H42  1  0.60472431  0.09168407  0.36565704  1 0.103653
  H  H43  1  0.46119516  0.09911497  0.36999787  1 0.113796
  H  H44  1  0.45133809  0.21231702  0.15916833  1 0.11313
  H  H45  1  0.59418591  0.20183630  0.15218616  1 0.103093
  H  H46  1  0.26606767  0.09479968  0.71207323  1 0.102845
  H  H47  1  0.26848504  0.10200075  0.56875665  1 0.109992
  H  H48  1  0.81093449  0.73086055  0.02545374  1 0.110201
  H  H49  1  0.81034856  0.72458015  0.16887984  1 0.101966
  H  H50  1  0.90695175  0.96568790  0.20839006  1 0.101765
  H  H51  1  0.91224158  0.96976846  0.06622806  1 0.113389
  H  H52  1  0.26913945  0.18906551  0.97454626  1 0.110201
  H  H53  1  0.27541985  0.18965144  0.83112016  1 0.101965
  H  H54  1  0.03431210  0.09304825  0.79160994  1 0.101765
  H  H55  1  0.03023154  0.08775842  0.93377194  1 0.113389
  C  C56  1  0.05723263  0.86518869  0.74975455  1 0.605505
  C  C57  1  0.14382532  0.86976097  0.74810839  1 -0.043264
  C  C58  1  0.17415559  0.83818517  0.68100413  1 -0.081109
  C  C59  1  0.25440069  0.83845078  0.67877461  1 -0.136669
  C  C60  1  0.30615145  0.86781371  0.74444209  1 0.072786
  C  C61  1  0.27543775  0.89992770  0.81130866  1 -0.138732
  C  C62  1  0.19505363  0.90221939  0.81277655  1 -0.080691
  C  C63  1  0.39093146  0.86270950  0.74244309  1 0.080476
  C  C64  1  0.42831619  0.88450161  0.67783643  1 -0.14123
  C  C65  1  0.50784747  0.87865104  0.67505655  1 -0.081601
  C  C66  1  0.55124088  0.84855816  0.73588602  1 -0.04627
  C  C67  1  0.51423126  0.82550930  0.80000125  1 -0.083667
  C  C68  1  0.43514028  0.83373945  0.80375198  1 -0.13599
  C  C69  1  0.63652231  0.84260943  0.73286006  1 0.606015
  C  C70  1  0.82207172  0.90350161  0.32612082  1 -0.132741
  C  C71  1  0.81622890  0.90100401  0.40537805  1 -0.083783
  C  C72  1  0.85676707  0.05777372  0.74947150  1 0.603972
  C  C73  1  0.85971333  0.14423819  0.74820650  1 -0.04951
  C  C74  1  0.83382471  0.17462401  0.67907223  1 -0.083793
  C  C75  1  0.83422492  0.25486758  0.67670448  1 -0.135994
  C  C76  1  0.85797735  0.30641248  0.74401516  1 0.075087
  C  C77  1  0.88390323  0.27559187  0.81308121  1 -0.135249
  C  C78  1  0.88604339  0.19530220  0.81493967  1 -0.08486
  C  C79  1  0.85405375  0.39121169  0.74158701  1 0.078953
  C  C80  1  0.88180674  0.42895787  0.67956069  1 -0.138407
  C  C81  1  0.87788942  0.50877337  0.67692384  1 -0.081256
  C  C82  1  0.84390576  0.55194056  0.73514081  1 -0.043652
  C  C83  1  0.81482567  0.51454040  0.79650767  1 -0.083146
  C  C84  1  0.82100665  0.43514462  0.80027694  1 -0.136699
  C  C85  1  0.84012829  0.63753188  0.73252519  1 0.603493
  C  C86  1  0.83295524  0.78143701  0.06642744  1 -0.088579
  C  C87  1  0.83272798  0.77823316  0.14622682  1 -0.137043
  C  C88  1  0.88588063  0.91400960  0.16859338  1 -0.126877
  C  C89  1  0.88900033  0.91652452  0.08890450  1 -0.081466
  C  C90  1  0.87976994  0.78038385  0.32113571  1 -0.134885
  C  C91  1  0.87608693  0.77893953  0.40081491  1 -0.082739
  C  C92  1  0.85833376  0.85335873  0.95129096  1 0.605652
  C  C93  1  0.86109001  0.85064064  0.03718612  1 -0.049359
  C  C94  1  0.85778684  0.84500201  0.19830464  1 0.075101
  C  C95  1  0.85342907  0.84296392  0.28279525  1 0.080483
  C  C96  1  0.84385529  0.83903119  0.44343295  1 -0.048976
  C  C97  1  0.84047340  0.83791923  0.52884941  1 0.60556
  C  C98  1  0.13481131  0.94276737  0.25024545  1 0.605505
  C  C99  1  0.13023903  0.85617468  0.25189161  1 -0.043265
  C  C100  1  0.16181483  0.82584441  0.31899587  1 -0.08111
  C  C101  1  0.16154922  0.74559931  0.32122539  1 -0.136669
  C  C102  1  0.13218629  0.69384855  0.25555791  1 0.072786
  C  C103  1  0.10007230  0.72456225  0.18869134  1 -0.138732
  C  C104  1  0.09778061  0.80494637  0.18722345  1 -0.080691
  C  C105  1  0.13729050  0.60906854  0.25755691  1 0.080476
  C  C106  1  0.11549839  0.57168381  0.32216357  1 -0.14123
  C  C107  1  0.12134896  0.49215253  0.32494345  1 -0.081601
  C  C108  1  0.15144184  0.44875912  0.26411398  1 -0.04627
  C  C109  1  0.17449070  0.48576874  0.19999875  1 -0.083666
  C  C110  1  0.16626055  0.56485972  0.19624802  1 -0.13599
  C  C111  1  0.15739057  0.36347769  0.26713994  1 0.606015
  C  C112  1  0.09649839  0.17792828  0.67387918  1 -0.132741
  C  C113  1  0.09899599  0.18377110  0.59462195  1 -0.083782
  C  C114  1  0.94222628  0.14323293  0.25052850  1 0.603972
  C  C115  1  0.85576181  0.14028667  0.25179350  1 -0.04951
  C  C116  1  0.82537599  0.16617529  0.32092777  1 -0.083793
  C  C117  1  0.74513242  0.16577508  0.32329552  1 -0.135995
  C  C118  1  0.69358752  0.14202265  0.25598484  1 0.075087
  C  C119  1  0.72440813  0.11609677  0.18691879  1 -0.135249
  C  C120  1  0.80469780  0.11395661  0.18506033  1 -0.084861
  C  C121  1  0.60878831  0.14594625  0.25841299  1 0.078953
  C  C122  1  0.57104213  0.11819326  0.32043931  1 -0.138407
  C  C123  1  0.49122663  0.12211058  0.32307616  1 -0.081256
  C  C124  1  0.44805944  0.15609424  0.26485919  1 -0.043651
  C  C125  1  0.48545960  0.18517433  0.20349233  1 -0.083146
  C  C126  1  0.56485538  0.17899335  0.19972306  1 -0.136699
  C  C127  1  0.36246812  0.15987171  0.26747481  1 0.603494
  C  C128  1  0.21856299  0.16704476  0.93357256  1 -0.088579
  C  C129  1  0.22176684  0.16727202  0.85377318  1 -0.137042
  C  C130  1  0.08599040  0.11411937  0.83140662  1 -0.126878
  C  C131  1  0.08347548  0.11099967  0.91109550  1 -0.081466
  C  C132  1  0.21961615  0.12023006  0.67886429  1 -0.134886
  C  C133  1  0.22106047  0.12391307  0.59918509  1 -0.082738
  C  C134  1  0.14664127  0.14166624  0.04870904  1 0.605652
  C  C135  1  0.14935936  0.13890999  0.96281388  1 -0.049359
  C  C136  1  0.15499799  0.14221316  0.80169536  1 0.075101
  C  C137  1  0.15703608  0.14657093  0.71720475  1 0.080483
  C  C138  1  0.16096881  0.15614471  0.55656705  1 -0.048976
  C  C139  1  0.16208077  0.15952660  0.47115059  1 0.60556
  O  O140  1  0.02976284  0.91022159  0.80104944  1 -0.546369
  O  O141  1  0.01765296  0.81514547  0.69900453  1 -0.55183
  O  O142  1  0.66915035  0.79881779  0.77907188  1 -0.546787
  O  O143  1  0.88455929  0.67137164  0.68809833  1 -0.547896
  O  O144  1  0.88234441  0.79129597  0.56309776  1 -0.550878
  O  O145  1  0.89963812  0.03138402  0.80336433  1 -0.549955
  O  O146  1  0.81097723  0.01727158  0.69578515  1 -0.547458
  O  O147  1  0.79319739  0.67010016  0.77512979  1 -0.547529
  O  O148  1  0.67023259  0.88223391  0.68442700  1 -0.550336
  O  O149  1  0.79630501  0.88397593  0.56145613  1 -0.550326
  O  O150  1  0.84786441  0.84914467  0.74210833  1 -1.027718
  O  O151  1  0.90337170  0.90603067  0.92578068  1 -0.54919
  O  O152  1  0.80999719  0.80219839  0.91001364  1 -0.553926
  O  O153  1  0.08977841  0.97023716  0.19895056  1 -0.546369
  O  O154  1  0.18485453  0.98234704  0.30099547  1 -0.55183
  O  O155  1  0.20118221  0.33084965  0.22092812  1 -0.546788
  O  O156  1  0.32862836  0.11544071  0.31190167  1 -0.547896
  O  O157  1  0.20870403  0.11765559  0.43690224  1 -0.550878
  O  O158  1  0.96861598  0.10036188  0.19663567  1 -0.549955
  O  O159  1  0.98272842  0.18902277  0.30421485  1 -0.547458
  O  O160  1  0.32989984  0.20680261  0.22487021  1 -0.54753
  O  O161  1  0.11776609  0.32976741  0.31557300  1 -0.550336
  O  O162  1  0.11602407  0.20369499  0.43854387  1 -0.550326
  O  O163  1  0.15085533  0.15213559  0.25789167  1 -1.027718
  O  O164  1  0.09396933  0.09662830  0.07421932  1 -0.54919
  O  O165  1  0.19780161  0.19000281  0.08998636  1 -0.553924
