# generated using pymatgen
data_Cd2H24C31S3N2
_symmetry_space_group_name_H-M   'P 1'
_cell_length_a   27.49402900
_cell_length_b   26.18760700
_cell_length_c   13.40354851
_cell_angle_alpha   90.00000000
_cell_angle_beta   91.38352959
_cell_angle_gamma   90.00000000
_symmetry_Int_Tables_number   1
_chemical_formula_structural   Cd2H24C31S3N2
_chemical_formula_sum   'Cd16 H192 C248 S24 N16'
_cell_volume   9647.77939139
_cell_formula_units_Z   8
loop_
 _symmetry_equiv_pos_site_id
 _symmetry_equiv_pos_as_xyz
  1  'x, y, z'
loop_
 _atom_site_type_symbol
 _atom_site_label
 _atom_site_symmetry_multiplicity
 _atom_site_fract_x
 _atom_site_fract_y
 _atom_site_fract_z
 _atom_site_occupancy
 _atom_site_charge
  Cd  Cd0  1  0.06528278  0.41367505  0.18848968  1 0.52646
  Cd  Cd1  1  0.09175023  0.41199508  0.86838386  1 0.53876
  Cd  Cd2  1  0.56243570  0.91652935  0.18395746  1 0.52646
  Cd  Cd3  1  0.59010384  0.91403239  0.86775100  1 0.53876
  Cd  Cd4  1  0.93635332  0.41514375  0.81286074  1 0.526462
  Cd  Cd5  1  0.90935343  0.41249902  0.13150940  1 0.538761
  Cd  Cd6  1  0.43699045  0.91667674  0.81296757  1 0.526462
  Cd  Cd7  1  0.40892432  0.91441065  0.13036375  1 0.538761
  Cd  Cd8  1  0.93597910  0.58476647  0.81387072  1 0.526463
  Cd  Cd9  1  0.90833463  0.58753507  0.13201981  1 0.538762
  Cd  Cd10  1  0.43828172  0.08371754  0.82391135  1 0.526463
  Cd  Cd11  1  0.41046656  0.08817562  0.12921073  1 0.538762
  Cd  Cd12  1  0.06368580  0.58335672  0.18634675  1 0.526464
  Cd  Cd13  1  0.09154874  0.58716876  0.86777185  1 0.538763
  Cd  Cd14  1  0.56186062  0.08461874  0.18389922  1 0.526464
  Cd  Cd15  1  0.59013599  0.08621645  0.86667767  1 0.538763
  H  H16  1  0.13338100  0.29606065  0.86071300  1 0.073004
  H  H17  1  0.17532854  0.40279735  0.21330266  1 0.067398
  H  H18  1  0.12553010  0.29417375  0.49082526  1 0.102595
  H  H19  1  0.17541095  0.24115729  0.74241780  1 0.102086
  H  H20  1  0.26263324  0.27580465  0.32965400  1 0.086632
  H  H21  1  0.23894880  0.35633644  0.30801578  1 0.105965
  H  H22  1  0.19595827  0.37538082  0.55783009  1 0.105237
  H  H23  1  0.15351979  0.42463964  0.68406931  1 0.060095
  H  H24  1  0.06567011  0.34005920  0.38309451  1 0.07099
  H  H25  1  0.95383146  0.35592944  0.43346826  1 0.109021
  H  H26  1  0.94889937  0.26318665  0.47219142  1 0.097882
  H  H27  1  0.96788607  0.19862694  0.34258999  1 0.095149
  H  H28  1  0.99261806  0.22750707  0.17355209  1 0.096301
  H  H29  1  0.99821764  0.31961596  0.13526936  1 0.084112
  H  H30  1  0.17861774  0.39534279  0.98725976  1 0.092612
  H  H31  1  0.25702224  0.35246862  0.02117907  1 0.097944
  H  H32  1  0.25967751  0.26799219  0.10843059  1 0.095275
  H  H33  1  0.18253544  0.22766958  0.16122961  1 0.104515
  H  H34  1  0.10319131  0.26989681  0.12381511  1 0.107526
  H  H35  1  0.62962567  0.79725473  0.85701082  1 0.073004
  H  H36  1  0.67275338  0.90694799  0.21119999  1 0.067398
  H  H37  1  0.62211892  0.79798379  0.48755785  1 0.102595
  H  H38  1  0.66999672  0.74230097  0.73594950  1 0.102086
  H  H39  1  0.75891117  0.77930341  0.32566280  1 0.086632
  H  H40  1  0.73625137  0.86075803  0.30739273  1 0.105965
  H  H41  1  0.69386419  0.87787315  0.55687299  1 0.105237
  H  H42  1  0.65320648  0.92700808  0.68602432  1 0.060095
  H  H43  1  0.56263278  0.84386684  0.37892858  1 0.07099
  H  H44  1  0.45330868  0.85638116  0.43366156  1 0.109021
  H  H45  1  0.44985478  0.76338281  0.47077823  1 0.097882
  H  H46  1  0.46926461  0.69975952  0.33969285  1 0.095149
  H  H47  1  0.49277404  0.72986795  0.17062439  1 0.096301
  H  H48  1  0.49691788  0.82216984  0.13398143  1 0.084112
  H  H49  1  0.67609336  0.89671711  0.98375643  1 0.092612
  H  H50  1  0.75474953  0.85484238  0.01920209  1 0.097944
  H  H51  1  0.75801393  0.77119426  0.10963176  1 0.095275
  H  H52  1  0.68119513  0.73095879  0.16445222  1 0.104515
  H  H53  1  0.60153917  0.77224276  0.12559410  1 0.107526
  H  H54  1  0.86766857  0.29651678  0.14028999  1 0.073004
  H  H55  1  0.82628958  0.40523899  0.78730269  1 0.067398
  H  H56  1  0.87587009  0.29659278  0.50965644  1 0.102595
  H  H57  1  0.82603387  0.24189809  0.25961571  1 0.102087
  H  H58  1  0.73920136  0.27818007  0.67283481  1 0.086632
  H  H59  1  0.76254474  0.35884951  0.69256560  1 0.105965
  H  H60  1  0.80502358  0.37681225  0.44211855  1 0.105237
  H  H61  1  0.84703304  0.42574842  0.31475545  1 0.060095
  H  H62  1  0.93578913  0.34249424  0.61724633  1 0.07099
  H  H63  1  0.04681482  0.35584404  0.56613454  1 0.10902
  H  H64  1  0.05106306  0.26305880  0.52757704  1 0.097882
  H  H65  1  0.03173758  0.19871182  0.65736596  1 0.095148
  H  H66  1  0.00741021  0.22787774  0.82649383  1 0.096301
  H  H67  1  0.00248900  0.32003531  0.86462834  1 0.084112
  H  H68  1  0.82256947  0.39569481  0.01316281  1 0.092612
  H  H69  1  0.74413676  0.35302586  0.97878327  1 0.097944
  H  H70  1  0.74137556  0.26880198  0.89049772  1 0.095275
  H  H71  1  0.81845287  0.22870778  0.83675063  1 0.104515
  H  H72  1  0.89783973  0.27077223  0.87445604  1 0.107526
  H  H73  1  0.36911873  0.79763436  0.14013147  1 0.073004
  H  H74  1  0.32714365  0.90706937  0.78519274  1 0.067398
  H  H75  1  0.37737995  0.79635672  0.51113452  1 0.102595
  H  H76  1  0.32887152  0.74243357  0.26075212  1 0.102087
  H  H77  1  0.24100309  0.77873999  0.67279219  1 0.086632
  H  H78  1  0.26345434  0.86066539  0.68974664  1 0.105965
  H  H79  1  0.30559239  0.87749179  0.44161830  1 0.105237
  H  H80  1  0.34613134  0.92693241  0.31290828  1 0.060095
  H  H81  1  0.43709070  0.84229111  0.61945718  1 0.07099
  H  H82  1  0.54691205  0.85482891  0.56531330  1 0.10902
  H  H83  1  0.55107947  0.76164775  0.53036894  1 0.097882
  H  H84  1  0.53122970  0.69865860  0.66238915  1 0.095148
  H  H85  1  0.50646333  0.72961631  0.83005594  1 0.096301
  H  H86  1  0.50164650  0.82208654  0.86457104  1 0.084112
  H  H87  1  0.32329044  0.89750318  0.01151418  1 0.092612
  H  H88  1  0.24492974  0.85475074  0.97698445  1 0.097944
  H  H89  1  0.24235032  0.77028006  0.88951964  1 0.095275
  H  H90  1  0.31951898  0.73014266  0.83646476  1 0.104515
  H  H91  1  0.39884889  0.77227284  0.87455893  1 0.107526
  H  H92  1  0.86719334  0.70362138  0.14129612  1 0.073005
  H  H93  1  0.82585566  0.59465788  0.78808729  1 0.067398
  H  H94  1  0.87561230  0.70395611  0.51154798  1 0.102595
  H  H95  1  0.82609650  0.75839868  0.26116479  1 0.102086
  H  H96  1  0.73870049  0.72210566  0.67376689  1 0.086632
  H  H97  1  0.76214507  0.64125102  0.69360737  1 0.105965
  H  H98  1  0.80484809  0.62351570  0.44361469  1 0.105237
  H  H99  1  0.84633374  0.57441777  0.31575202  1 0.060095
  H  H100  1  0.93545742  0.65779190  0.61890416  1 0.07099
  H  H101  1  0.04671594  0.64367189  0.56657810  1 0.109021
  H  H102  1  0.05121308  0.73644245  0.52799274  1 0.097882
  H  H103  1  0.03182336  0.80085795  0.65760853  1 0.09515
  H  H104  1  0.00723034  0.77178410  0.82661030  1 0.096301
  H  H105  1  0.00210626  0.67964138  0.86481463  1 0.084112
  H  H106  1  0.82186750  0.60465065  0.01367232  1 0.092612
  H  H107  1  0.74357604  0.64756533  0.97904913  1 0.097944
  H  H108  1  0.74111214  0.73173522  0.89056241  1 0.095275
  H  H109  1  0.81833484  0.77156092  0.83694325  1 0.104515
  H  H110  1  0.89758412  0.72928254  0.87498703  1 0.107526
  H  H111  1  0.37110335  0.20365371  0.14601516  1 0.073005
  H  H112  1  0.32848917  0.09297590  0.79509242  1 0.067398
  H  H113  1  0.37962048  0.20094423  0.51769840  1 0.102595
  H  H114  1  0.33196922  0.25776311  0.27034042  1 0.102086
  H  H115  1  0.24284040  0.22030661  0.67861192  1 0.086632
  H  H116  1  0.26512057  0.13884077  0.69790143  1 0.105965
  H  H117  1  0.30980664  0.12097572  0.44689091  1 0.105237
  H  H118  1  0.34944053  0.07284525  0.31484995  1 0.060095
  H  H119  1  0.43881199  0.15471152  0.62643342  1 0.07099
  H  H120  1  0.54713146  0.14549774  0.56546014  1 0.109021
  H  H121  1  0.55128958  0.23860022  0.53028428  1 0.097882
  H  H122  1  0.53145486  0.30174120  0.66193682  1 0.09515
  H  H123  1  0.50673590  0.27093602  0.82982015  1 0.096301
  H  H124  1  0.50186490  0.17859612  0.86458020  1 0.084112
  H  H125  1  0.32251204  0.10730112  0.02047695  1 0.092612
  H  H126  1  0.24265612  0.14598409  0.98253524  1 0.097944
  H  H127  1  0.23686009  0.22841826  0.88833985  1 0.095275
  H  H128  1  0.31234030  0.27035631  0.83123976  1 0.104515
  H  H129  1  0.39321156  0.23205838  0.87105905  1 0.107526
  H  H130  1  0.13305347  0.70326902  0.85842528  1 0.073004
  H  H131  1  0.17361453  0.59346196  0.21177155  1 0.067398
  H  H132  1  0.12397041  0.70307752  0.48791135  1 0.102595
  H  H133  1  0.17396069  0.75787104  0.73804312  1 0.102086
  H  H134  1  0.26036796  0.72155031  0.32446208  1 0.086632
  H  H135  1  0.23734100  0.64038361  0.30565840  1 0.105965
  H  H136  1  0.19470545  0.62279016  0.55585957  1 0.105237
  H  H137  1  0.15343809  0.57389586  0.68418540  1 0.060095
  H  H138  1  0.06408892  0.65659811  0.38114726  1 0.07099
  H  H139  1  0.95307126  0.64352430  0.43347168  1 0.10902
  H  H140  1  0.94869348  0.73630717  0.47192556  1 0.097882
  H  H141  1  0.96831293  0.80064491  0.34233713  1 0.095148
  H  H142  1  0.99307401  0.77147394  0.17351533  1 0.096301
  H  H143  1  0.99815234  0.67930985  0.13546366  1 0.084112
  H  H144  1  0.17784822  0.60411045  0.98656869  1 0.092612
  H  H145  1  0.25599881  0.64734474  0.02083760  1 0.097944
  H  H146  1  0.25822179  0.73155239  0.10923940  1 0.095275
  H  H147  1  0.18091049  0.77103355  0.16321945  1 0.104515
  H  H148  1  0.10178634  0.72841164  0.12557723  1 0.107526
  H  H149  1  0.62986723  0.20305030  0.85635103  1 0.073004
  H  H150  1  0.67234170  0.09381741  0.21026108  1 0.067398
  H  H151  1  0.62238200  0.20249587  0.48762787  1 0.102595
  H  H152  1  0.67015110  0.25794983  0.73513530  1 0.102086
  H  H153  1  0.75865410  0.22120474  0.32443777  1 0.086632
  H  H154  1  0.73609818  0.13979782  0.30624210  1 0.105965
  H  H155  1  0.69433419  0.12232616  0.55655746  1 0.105237
  H  H156  1  0.65376468  0.07319030  0.68579157  1 0.060095
  H  H157  1  0.56263957  0.15678680  0.37920484  1 0.07099
  H  H158  1  0.45275344  0.14703129  0.43476978  1 0.10902
  H  H159  1  0.44875581  0.24011245  0.47065582  1 0.097882
  H  H160  1  0.46891361  0.30345344  0.33943293  1 0.095148
  H  H161  1  0.49392753  0.27288881  0.17165486  1 0.096301
  H  H162  1  0.49860008  0.18051207  0.13609331  1 0.084112
  H  H163  1  0.67548428  0.10353240  0.98346315  1 0.092612
  H  H164  1  0.75411288  0.14543793  0.01920619  1 0.097944
  H  H165  1  0.75726472  0.22918284  0.10933686  1 0.095275
  H  H166  1  0.68035258  0.26947014  0.16356680  1 0.104515
  H  H167  1  0.60072692  0.22817058  0.12438540  1 0.107526
  H  H168  1  0.15752278  0.49990069  0.05139087  1 0.089342
  H  H169  1  0.23773373  0.50010435  0.13729066  1 0.09764
  H  H170  1  0.22657576  0.49965430  0.76603603  1 0.109375
  H  H171  1  0.30760322  0.49987499  0.85223721  1 0.097854
  H  H172  1  0.31379381  0.50010764  0.03815121  1 0.094307
  H  H173  1  0.03302952  0.49962547  0.35960005  1 0.08617
  H  H174  1  0.03846788  0.49996951  0.54491888  1 0.094375
  H  H175  1  0.11894255  0.49975684  0.63225907  1 0.077421
  H  H176  1  0.19483794  0.49947096  0.53340310  1 0.096213
  H  H177  1  0.18949089  0.49916175  0.34798405  1 0.099363
  H  H178  1  0.65676831  0.99995246  0.05098797  1 0.089342
  H  H179  1  0.73628305  0.99971063  0.13947290  1 0.09764
  H  H180  1  0.72811853  0.00013717  0.76803752  1 0.109375
  H  H181  1  0.80846149  0.99991126  0.85699209  1 0.097854
  H  H182  1  0.81317211  0.99959708  0.04300556  1 0.094307
  H  H183  1  0.53202082  0.00065660  0.35756594  1 0.08617
  H  H184  1  0.53795916  0.00039769  0.54282236  1 0.094375
  H  H185  1  0.61861503  0.00016120  0.62924396  1 0.077421
  H  H186  1  0.69426990  0.00012949  0.52952854  1 0.096213
  H  H187  1  0.68841034  0.00038172  0.34417163  1 0.099363
  H  H188  1  0.84263118  0.49990964  0.94837825  1 0.089342
  H  H189  1  0.76235736  0.50001807  0.86279186  1 0.09764
  H  H190  1  0.77381321  0.49958869  0.23399965  1 0.109375
  H  H191  1  0.69273046  0.49973540  0.14806774  1 0.097854
  H  H192  1  0.68638644  0.49995991  0.96217446  1 0.094307
  H  H193  1  0.96739371  0.49996806  0.64072686  1 0.08617
  H  H194  1  0.96169830  0.50009493  0.45542786  1 0.094374
  H  H195  1  0.88111766  0.50021291  0.36854455  1 0.077421
  H  H196  1  0.80535609  0.50024962  0.46788658  1 0.096213
  H  H197  1  0.81096527  0.50013587  0.65325747  1 0.099363
  H  H198  1  0.34315226  0.00295914  0.94718907  1 0.089342
  H  H199  1  0.26315787  0.00240609  0.86056098  1 0.09764
  H  H200  1  0.27351650  0.00036254  0.23187713  1 0.109375
  H  H201  1  0.19267390  0.99967809  0.14489036  1 0.097854
  H  H202  1  0.18686931  0.00055182  0.95896660  1 0.094307
  H  H203  1  0.46776873  0.00221954  0.64199336  1 0.08617
  H  H204  1  0.46294968  0.00136192  0.45675535  1 0.094374
  H  H205  1  0.38287452  0.99953856  0.36819970  1 0.077421
  H  H206  1  0.30658925  0.99948284  0.46592067  1 0.096213
  H  H207  1  0.31120971  0.00049880  0.65125363  1 0.099363
  C  C208  1  0.18844919  0.31918542  0.40828334  1 0.108406
  C  C209  1  0.19091798  0.30229948  0.63646093  1 0.100175
  C  C210  1  0.14837986  0.31223519  0.79314667  1 0.064701
  C  C211  1  0.16565250  0.37735001  0.27404942  1 0.071468
  C  C212  1  0.13803249  0.31754935  0.42946530  1 -0.197176
  C  C213  1  0.17237114  0.28185863  0.72659560  1 -0.204107
  C  C214  1  0.26074565  0.26596688  0.40862083  1 -0.149846
  C  C215  1  0.21699154  0.27227780  0.56578918  1 -0.04045
  C  C216  1  0.20101277  0.35126542  0.32744373  1 -0.199956
  C  C217  1  0.18271149  0.35572806  0.62331688  1 -0.200361
  C  C218  1  0.15911389  0.38371317  0.69405548  1 0.059973
  C  C219  1  0.22377480  0.28871011  0.46278112  1 -0.02951
  C  C220  1  0.10458581  0.34328109  0.37018501  1 0.069689
  C  C221  1  0.97699530  0.34377210  0.28254944  1 0.114048
  C  C222  1  0.96267933  0.32761289  0.37712004  1 -0.122196
  C  C223  1  0.95958998  0.27549260  0.39819492  1 -0.072908
  C  C224  1  0.97045587  0.23924511  0.32566980  1 -0.10047
  C  C225  1  0.98433196  0.25540638  0.23117279  1 -0.072125
  C  C226  1  0.98756935  0.30736025  0.20935164  1 -0.1537
  C  C227  1  0.13545902  0.33502203  0.05185434  1 0.112797
  C  C228  1  0.17907097  0.35825156  0.02421869  1 -0.143004
  C  C229  1  0.22349225  0.33406471  0.04408935  1 -0.071973
  C  C230  1  0.22501217  0.28698710  0.09305989  1 -0.091884
  C  C231  1  0.18163302  0.26410778  0.12182761  1 -0.071266
  C  C232  1  0.13700209  0.28769198  0.10096735  1 -0.129438
  C  C233  1  0.68527741  0.82286761  0.40555799  1 0.108406
  C  C234  1  0.68733002  0.80427076  0.63304248  1 0.100175
  C  C235  1  0.64518978  0.81369188  0.79020155  1 0.064701
  C  C236  1  0.66295216  0.88126419  0.27153536  1 0.071468
  C  C237  1  0.63483722  0.82129402  0.42635813  1 -0.197176
  C  C238  1  0.66820686  0.78329732  0.72213781  1 -0.204107
  C  C239  1  0.75697806  0.76882781  0.40434182  1 -0.149846
  C  C240  1  0.71312565  0.77443450  0.56155638  1 -0.04045
  C  C241  1  0.69819260  0.85536156  0.32566846  1 -0.199956
  C  C242  1  0.68034879  0.85794799  0.62180701  1 -0.200361
  C  C243  1  0.65770480  0.88583455  0.69402307  1 0.059973
  C  C244  1  0.72030105  0.79162294  0.45920285  1 -0.02951
  C  C245  1  0.60159791  0.84700474  0.36659757  1 0.069689
  C  C246  1  0.47606158  0.84533826  0.28211446  1 0.114048
  C  C247  1  0.46230388  0.82848533  0.37661939  1 -0.122196
  C  C248  1  0.46004051  0.77621206  0.39677063  1 -0.072908
  C  C249  1  0.47114116  0.74049023  0.32342877  1 -0.10047
  C  C250  1  0.48434853  0.75733499  0.22895408  1 -0.072125
  C  C251  1  0.48675409  0.80943428  0.20805420  1 -0.1537
  C  C252  1  0.63333294  0.83679719  0.05081547  1 0.112797
  C  C253  1  0.67677815  0.86001317  0.02214061  1 -0.143004
  C  C254  1  0.72137704  0.83636642  0.04283124  1 -0.071973
  C  C255  1  0.72322714  0.78981229  0.09362106  1 -0.091884
  C  C256  1  0.68003408  0.76694284  0.12344033  1 -0.071266
  C  C257  1  0.63521311  0.78999490  0.10181421  1 -0.129438
  C  C258  1  0.81303989  0.32143379  0.59271258  1 0.108406
  C  C259  1  0.81039361  0.30341829  0.36479816  1 0.100175
  C  C260  1  0.85265826  0.31289112  0.20768207  1 0.064701
  C  C261  1  0.83587507  0.37967122  0.72668053  1 0.071468
  C  C262  1  0.86341147  0.31988472  0.57113020  1 -0.197176
  C  C263  1  0.82888767  0.28267114  0.27488091  1 -0.204106
  C  C264  1  0.74105448  0.26781655  0.59409050  1 -0.149846
  C  C265  1  0.78457799  0.27362856  0.43631232  1 -0.04045
  C  C266  1  0.80047887  0.35367356  0.67329172  1 -0.199956
  C  C267  1  0.81830830  0.35693827  0.37692423  1 -0.200361
  C  C268  1  0.84168352  0.38473587  0.30559188  1 0.059973
  C  C269  1  0.77776415  0.29055291  0.53904755  1 -0.02951
  C  C270  1  0.89688301  0.34559297  0.63034352  1 0.069689
  C  C271  1  0.02369435  0.34396905  0.71720766  1 0.114048
  C  C272  1  0.03781748  0.32764520  0.62259997  1 -0.122196
  C  C273  1  0.04053408  0.27548766  0.60160716  1 -0.072908
  C  C274  1  0.02948090  0.23935869  0.67422829  1 -0.100469
  C  C275  1  0.01581742  0.25568081  0.76877218  1 -0.072125
  C  C276  1  0.01296316  0.30767048  0.79050801  1 -0.1537
  C  C277  1  0.86566299  0.33561413  0.94759940  1 0.112797
  C  C278  1  0.82207932  0.35874696  0.97567437  1 -0.143004
  C  C279  1  0.77763325  0.33465039  0.95559888  1 -0.071973
  C  C280  1  0.77605926  0.28773868  0.90603859  1 -0.091884
  C  C281  1  0.81941052  0.26497974  0.87673096  1 -0.071266
  C  C282  1  0.86406506  0.28848923  0.89772963  1 -0.129438
  C  C283  1  0.31435669  0.82220302  0.59231202  1 0.108406
  C  C284  1  0.31185190  0.80404123  0.36477043  1 0.100175
  C  C285  1  0.35374915  0.81391167  0.20730124  1 0.064701
  C  C286  1  0.33683889  0.88097729  0.72547370  1 0.071468
  C  C287  1  0.36479920  0.82010667  0.57185852  1 -0.197176
  C  C288  1  0.33077440  0.78336294  0.27519515  1 -0.204106
  C  C289  1  0.24269924  0.76824463  0.59410547  1 -0.149846
  C  C290  1  0.28615418  0.77404768  0.43625731  1 -0.04045
  C  C291  1  0.30151095  0.85500983  0.67172313  1 -0.199956
  C  C292  1  0.31896310  0.85770504  0.37640526  1 -0.200361
  C  C293  1  0.34154813  0.88578476  0.30437604  1 0.059973
  C  C294  1  0.27918147  0.79106766  0.53878586  1 -0.02951
  C  C295  1  0.39812706  0.84584217  0.63140118  1 0.069689
  C  C296  1  0.52340414  0.84454057  0.71653524  1 0.114048
  C  C297  1  0.53770910  0.82720414  0.62272738  1 -0.122196
  C  C298  1  0.54032969  0.77481995  0.60381494  1 -0.072908
  C  C299  1  0.52900638  0.73946979  0.67768140  1 -0.100469
  C  C300  1  0.51510508  0.75679769  0.77136332  1 -0.072125
  C  C301  1  0.51233391  0.80901058  0.79104562  1 -0.1537
  C  C302  1  0.36651936  0.83720071  0.94705450  1 0.112797
  C  C303  1  0.32287200  0.86042589  0.97448717  1 -0.143004
  C  C304  1  0.27846677  0.83629299  0.95425239  1 -0.071973
  C  C305  1  0.27699662  0.78927485  0.90508375  1 -0.091884
  C  C306  1  0.32039582  0.76647196  0.87624732  1 -0.071266
  C  C307  1  0.36501612  0.79000313  0.89746303  1 -0.129438
  C  C308  1  0.81271638  0.67885203  0.59413224  1 0.108406
  C  C309  1  0.81027354  0.69688982  0.36622244  1 0.100175
  C  C310  1  0.85221974  0.68729316  0.20876295  1 0.064701
  C  C311  1  0.83547979  0.62035467  0.72770029  1 0.071468
  C  C312  1  0.86311359  0.68049379  0.57277912  1 -0.197176
  C  C313  1  0.82876196  0.71759966  0.27625929  1 -0.204107
  C  C314  1  0.74069509  0.73246769  0.59502851  1 -0.149847
  C  C315  1  0.78449115  0.72674248  0.43765728  1 -0.04045
  C  C316  1  0.80009864  0.64647355  0.67446338  1 -0.199956
  C  C317  1  0.81805391  0.64334028  0.37829711  1 -0.200361
  C  C318  1  0.84112716  0.61545430  0.30666945  1 0.059973
  C  C319  1  0.77750909  0.70976162  0.54031711  1 -0.02951
  C  C320  1  0.89654531  0.65465146  0.63187040  1 0.069689
  C  C321  1  0.02342652  0.65563916  0.71749895  1 0.114048
  C  C322  1  0.03770265  0.67190836  0.62296497  1 -0.122196
  C  C323  1  0.04055575  0.72405352  0.60196053  1 -0.072908
  C  C324  1  0.02947578  0.76022147  0.67449338  1 -0.10047
  C  C325  1  0.01566795  0.74394862  0.76897199  1 -0.072125
  C  C326  1  0.01268893  0.69196728  0.79073738  1 -0.1537
  C  C327  1  0.86517957  0.66457608  0.94814140  1 0.112797
  C  C328  1  0.82150845  0.64159519  0.97615554  1 -0.143004
  C  C329  1  0.77714302  0.66582361  0.95593464  1 -0.071973
  C  C330  1  0.77573384  0.71270773  0.90625553  1 -0.091883
  C  C331  1  0.81916627  0.73531418  0.87701328  1 -0.071266
  C  C332  1  0.86374260  0.71168367  0.89819654  1 -0.129438
  C  C333  1  0.31632285  0.17622788  0.59939161  1 0.108406
  C  C334  1  0.31485848  0.19496943  0.37141971  1 0.100175
  C  C335  1  0.35590966  0.18677173  0.21279917  1 0.064701
  C  C336  1  0.33829541  0.11833607  0.73421735  1 0.071468
  C  C337  1  0.36674718  0.17771478  0.57885617  1 -0.197176
  C  C338  1  0.33359295  0.21665649  0.28261683  1 -0.204107
  C  C339  1  0.24472959  0.23047392  0.59982106  1 -0.149847
  C  C340  1  0.28867294  0.22443755  0.44294269  1 -0.04045
  C  C341  1  0.30316246  0.14402769  0.67949043  1 -0.199956
  C  C342  1  0.32242072  0.14133089  0.38167920  1 -0.200361
  C  C343  1  0.34447303  0.11399433  0.30782402  1 0.059973
  C  C344  1  0.28142883  0.20749204  0.54533530  1 -0.02951
  C  C345  1  0.39982975  0.15195749  0.63883048  1 0.069689
  C  C346  1  0.52355257  0.15590652  0.71680207  1 0.114048
  C  C347  1  0.53795114  0.17310520  0.62290839  1 -0.122196
  C  C348  1  0.54059830  0.22546819  0.60376376  1 -0.072908
  C  C349  1  0.52927451  0.26094659  0.67740961  1 -0.10047
  C  C350  1  0.51542314  0.24374892  0.77119743  1 -0.072125
  C  C351  1  0.51260237  0.19158022  0.79106569  1 -0.1537
  C  C352  1  0.36349831  0.16732582  0.94932222  1 0.112797
  C  C353  1  0.32072707  0.14331035  0.97974099  1 -0.143004
  C  C354  1  0.27545795  0.16526486  0.95797008  1 -0.071973
  C  C355  1  0.27218481  0.21107532  0.90489599  1 -0.091883
  C  C356  1  0.31469201  0.23492454  0.87389503  1 -0.071266
  C  C357  1  0.36018533  0.21349387  0.89620660  1 -0.129438
  C  C358  1  0.18679666  0.67804925  0.40508367  1 0.108406
  C  C359  1  0.18951755  0.69629267  0.63293790  1 0.100175
  C  C360  1  0.14786556  0.68685932  0.79085395  1 0.064701
  C  C361  1  0.16404199  0.61926269  0.27204204  1 0.071468
  C  C362  1  0.13644121  0.67958745  0.42673563  1 -0.197176
  C  C363  1  0.17123653  0.71707070  0.72304936  1 -0.204106
  C  C364  1  0.25858642  0.73198274  0.40318846  1 -0.149847
  C  C365  1  0.21515354  0.72610328  0.56118095  1 -0.04045
  C  C366  1  0.19941115  0.64556401  0.32493683  1 -0.199956
  C  C367  1  0.18166322  0.64273417  0.62116999  1 -0.200361
  C  C368  1  0.15869251  0.61493715  0.69307117  1 0.059973
  C  C369  1  0.22200917  0.70916007  0.45846749  1 -0.02951
  C  C370  1  0.10299675  0.65356419  0.36800960  1 0.069689
  C  C371  1  0.97659516  0.65537839  0.28267219  1 0.114048
  C  C372  1  0.96222598  0.67171591  0.37710486  1 -0.122196
  C  C373  1  0.95942824  0.72387329  0.39803648  1 -0.072908
  C  C374  1  0.97063602  0.75999880  0.32551189  1 -0.100469
  C  C375  1  0.98455068  0.74366341  0.23114629  1 -0.072125
  C  C376  1  0.98749647  0.69166917  0.20946570  1 -0.1537
  C  C377  1  0.13436359  0.66384388  0.05225813  1 0.112797
  C  C378  1  0.17809605  0.64105586  0.02407303  1 -0.143004
  C  C379  1  0.22238865  0.66546314  0.04409676  1 -0.071973
  C  C380  1  0.22366121  0.71236627  0.09371881  1 -0.091883
  C  C381  1  0.18017314  0.73478006  0.12316406  1 -0.071266
  C  C382  1  0.13566537  0.71095305  0.10221314  1 -0.129438
  C  C383  1  0.68530848  0.17757098  0.40498295  1 0.108406
  C  C384  1  0.68770700  0.19596910  0.63247775  1 0.100175
  C  C385  1  0.64551232  0.18657580  0.78963365  1 0.064701
  C  C386  1  0.66271606  0.11942298  0.27081708  1 0.071468
  C  C387  1  0.63492662  0.17919804  0.42622659  1 -0.197176
  C  C388  1  0.66850821  0.21694581  0.72148035  1 -0.204106
  C  C389  1  0.75695497  0.23160400  0.40317335  1 -0.149847
  C  C390  1  0.71346830  0.22582817  0.56087510  1 -0.04045
  C  C391  1  0.69807886  0.14518013  0.32484092  1 -0.199956
  C  C392  1  0.68082348  0.14227017  0.62145742  1 -0.200361
  C  C393  1  0.65819029  0.11438578  0.69369991  1 0.059973
  C  C394  1  0.72045737  0.20873618  0.45842109  1 -0.02951
  C  C395  1  0.60156568  0.15362304  0.36652830  1 0.069689
  C  C396  1  0.47652244  0.15764698  0.28370378  1 0.114048
  C  C397  1  0.46214223  0.17476507  0.37767209  1 -0.122196
  C  C398  1  0.45959616  0.22710325  0.39713550  1 -0.072908
  C  C399  1  0.47106893  0.26265073  0.32371687  1 -0.100469
  C  C400  1  0.48512836  0.24556269  0.22995801  1 -0.072125
  C  C401  1  0.48781860  0.19339213  0.20970070  1 -0.1537
  C  C402  1  0.63265144  0.16352694  0.05002357  1 0.112797
  C  C403  1  0.67614770  0.14028030  0.02172688  1 -0.143004
  C  C404  1  0.72070694  0.16397810  0.04252120  1 -0.071973
  C  C405  1  0.72247585  0.21059544  0.09311501  1 -0.091883
  C  C406  1  0.67921599  0.23346783  0.12264127  1 -0.071266
  C  C407  1  0.63443482  0.21038187  0.10085429  1 -0.129438
  C  C408  1  0.18671722  0.49977543  0.90300883  1 0.122436
  C  C409  1  0.19032252  0.49990762  0.00746511  1 -0.148267
  C  C410  1  0.23579987  0.50002632  0.05585328  1 -0.068616
  C  C411  1  0.22927696  0.49976879  0.84730153  1 -0.123428
  C  C412  1  0.27472198  0.49989351  0.89617456  1 -0.07755
  C  C413  1  0.27821102  0.50001997  0.00041877  1 -0.099958
  C  C414  1  0.11097420  0.49930535  0.34202650  1 0.121349
  C  C415  1  0.06847094  0.49957444  0.39780011  1 -0.150127
  C  C416  1  0.07154261  0.49976000  0.50174662  1 -0.06666
  C  C417  1  0.11688836  0.49967386  0.55092262  1 -0.087793
  C  C418  1  0.15924045  0.49947528  0.49554735  1 -0.067939
  C  C419  1  0.15647855  0.49929561  0.39135469  1 -0.122795
  C  C420  1  0.68714830  0.00000635  0.90362745  1 0.122436
  C  C421  1  0.68992208  0.99993004  0.00814910  1 -0.148267
  C  C422  1  0.73501758  0.99979389  0.05803331  1 -0.068616
  C  C423  1  0.73016816  0.00003649  0.84936183  1 -0.123428
  C  C424  1  0.77522381  0.99989751  0.89981319  1 -0.07755
  C  C425  1  0.77788094  0.99973639  0.00410200  1 -0.099958
  C  C426  1  0.60989559  0.00057024  0.33906002  1 0.121349
  C  C427  1  0.56755965  0.00054923  0.39532926  1 -0.150127
  C  C428  1  0.57090515  0.00039883  0.49924677  1 -0.06666
  C  C429  1  0.61636563  0.00028098  0.54793315  1 -0.087793
  C  C430  1  0.65856052  0.00023307  0.49209267  1 -0.067939
  C  C431  1  0.65551367  0.00038222  0.38791340  1 -0.122795
  C  C432  1  0.81356821  0.49975346  0.09689373  1 0.122436
  C  C433  1  0.80987726  0.49986615  0.99244665  1 -0.148267
  C  C434  1  0.76436129  0.49992993  0.94422031  1 -0.068616
  C  C435  1  0.77105337  0.49968245  0.15274107  1 -0.123428
  C  C436  1  0.72557041  0.49976641  0.10401442  1 -0.07755
  C  C437  1  0.72199620  0.49989571  0.99978833  1 -0.099958
  C  C438  1  0.88948614  0.50004120  0.65877236  1 0.121349
  C  C439  1  0.93190314  0.50002671  0.60273881  1 -0.150127
  C  C440  1  0.92868729  0.50009507  0.49879654  1 -0.06666
  C  C441  1  0.88327451  0.50017561  0.44987650  1 -0.087793
  C  C442  1  0.84100603  0.50019247  0.50551493  1 -0.067939
  C  C443  1  0.84391806  0.50012779  0.60970509  1 -0.122795
  C  C444  1  0.31364177  0.00158122  0.09524448  1 0.122436
  C  C445  1  0.31024617  0.00228441  0.99078267  1 -0.148267
  C  C446  1  0.26488849  0.00191808  0.94197682  1 -0.068616
  C  C447  1  0.27096595  0.00074779  0.15058977  1 -0.123428
  C  C448  1  0.22563444  0.00041465  0.10123671  1 -0.07755
  C  C449  1  0.22236825  0.00092750  0.99700207  1 -0.099958
  C  C450  1  0.38979989  0.00115475  0.65864103  1 0.121349
  C  C451  1  0.43245301  0.00160541  0.60338125  1 -0.150127
  C  C452  1  0.42973137  0.00111130  0.49942325  1 -0.06666
  C  C453  1  0.38459226  0.00015955  0.44954436  1 -0.087793
  C  C454  1  0.34205799  0.00011418  0.50432164  1 -0.067939
  C  C455  1  0.34444770  0.00065883  0.60856506  1 -0.122795
  S  S456  1  0.98094829  0.41085154  0.25876397  1 -0.32674
  S  S457  1  0.07730777  0.36324223  0.02664769  1 -0.339622
  S  S458  1  0.47943631  0.91257833  0.25978420  1 -0.32674
  S  S459  1  0.57501560  0.86445437  0.02449167  1 -0.339622
  S  S460  1  0.02027985  0.41109794  0.74090617  1 -0.32674
  S  S461  1  0.92384182  0.36366318  0.97334974  1 -0.339622
  S  S462  1  0.52002197  0.91192318  0.73755998  1 -0.32674
  S  S463  1  0.42461434  0.86524357  0.97344493  1 -0.339622
  S  S464  1  0.01977287  0.58852459  0.74110126  1 -0.32674
  S  S465  1  0.92326624  0.63636352  0.97410214  1 -0.339622
  S  S466  1  0.51956967  0.08863102  0.73828845  1 -0.32674
  S  S467  1  0.42264878  0.14156127  0.97593859  1 -0.339622
  S  S468  1  0.97994767  0.58822589  0.25912617  1 -0.32674
  S  S469  1  0.07640264  0.63533268  0.02636614  1 -0.339622
  S  S470  1  0.47968855  0.09033001  0.26202393  1 -0.32674
  S  S471  1  0.57444939  0.13571749  0.02339054  1 -0.339622
  S  S472  1  0.12928000  0.49960381  0.83909018  1 -0.366556
  S  S473  1  0.10865583  0.49896918  0.20866846  1 -0.365004
  S  S474  1  0.63021452  0.00005322  0.83768611  1 -0.366556
  S  S475  1  0.60723423  0.00068044  0.20572104  1 -0.365004
  S  S476  1  0.87105641  0.49982212  0.16066214  1 -0.366556
  S  S477  1  0.89198766  0.49987690  0.79212262  1 -0.365004
  S  S478  1  0.37100912  0.00151951  0.15954542  1 -0.366556
  S  S479  1  0.39177336  0.00039745  0.79200667  1 -0.365004
  N  N480  1  0.11737901  0.37323976  0.29241703  1 -0.255887
  N  N481  1  0.14132907  0.36325030  0.77904647  1 -0.268776
  N  N482  1  0.61466015  0.87679502  0.28889532  1 -0.255887
  N  N483  1  0.63969270  0.86500432  0.77837022  1 -0.268776
  N  N484  1  0.88412437  0.37541500  0.70829109  1 -0.255887
  N  N485  1  0.85949181  0.36398358  0.22093172  1 -0.268776
  N  N486  1  0.38511523  0.87614858  0.70838555  1 -0.255887
  N  N487  1  0.35941873  0.86518918  0.21965026  1 -0.268776
  N  N488  1  0.88374006  0.62461408  0.70946146  1 -0.255888
  N  N489  1  0.85880727  0.63614192  0.22181412  1 -0.268776
  N  N490  1  0.38650060  0.12257150  0.71664703  1 -0.255888
  N  N491  1  0.36130071  0.13539104  0.22301556  1 -0.268776
  N  N492  1  0.11581492  0.62346221  0.29054725  1 -0.255888
  N  N493  1  0.14119012  0.63571143  0.77800504  1 -0.268777
  N  N494  1  0.61447662  0.12396451  0.28853802  1 -0.255888
  N  N495  1  0.64009324  0.13524946  0.77792900  1 -0.268777
