# generated using pymatgen
data_Co3H8C14(NO)6
_symmetry_space_group_name_H-M   'P 1'
_cell_length_a   10.69446474
_cell_length_b   10.91077079
_cell_length_c   10.73290461
_cell_angle_alpha   89.49365985
_cell_angle_beta   92.16431694
_cell_angle_gamma   60.96843147
_symmetry_Int_Tables_number   1
_chemical_formula_structural   Co3H8C14(NO)6
_chemical_formula_sum   'Co6 H16 C28 N12 O12'
_cell_volume   1093.70039622
_cell_formula_units_Z   2
loop_
 _symmetry_equiv_pos_site_id
 _symmetry_equiv_pos_as_xyz
  1  'x, y, z'
loop_
 _atom_site_type_symbol
 _atom_site_label
 _atom_site_symmetry_multiplicity
 _atom_site_fract_x
 _atom_site_fract_y
 _atom_site_fract_z
 _atom_site_occupancy
 _atom_site_charge
  Co  Co0  1  0.08425121  0.90834090  0.25183366  1 0.689825
  Co  Co1  1  0.98458863  0.85156311  0.00383332  1 0.847751
  Co  Co2  1  0.83746065  0.00838462  0.49640249  1 0.857821
  Co  Co3  1  0.91574857  0.09165924  0.74816628  1 0.816861
  Co  Co4  1  0.01541137  0.14843691  0.99616681  1 0.844442
  Co  Co5  1  0.16253953  0.99161526  0.50359737  1 0.862602
  H  H6  1  0.21545067  0.86153189  0.06398143  1 0.39362
  H  H7  1  0.11500871  0.78654194  0.45221369  1 0.395314
  H  H8  1  0.47393889  0.79266981  0.09261587  1 0.109826
  H  H9  1  0.66047065  0.82309835  0.98523907  1 0.121414
  H  H10  1  0.56840968  0.93377345  0.44018044  1 0.125603
  H  H11  1  0.16107804  0.32503937  0.52662569  1 0.120005
  H  H12  1  0.16376381  0.53103598  0.42726407  1 0.109628
  H  H13  1  0.06401138  0.42748010  0.06221013  1 0.126299
  H  H14  1  0.78454914  0.13846822  0.93601864  1 0.394216
  H  H15  1  0.88499125  0.21345824  0.54778623  1 0.396277
  H  H16  1  0.52606110  0.20733019  0.90738413  1 0.111133
  H  H17  1  0.33952934  0.17690165  0.01476093  1 0.121585
  H  H18  1  0.43159032  0.06622656  0.55981956  1 0.125703
  H  H19  1  0.83892195  0.67496064  0.47337430  1 0.119907
  H  H20  1  0.83623619  0.46896403  0.57273593  1 0.110586
  H  H21  1  0.93598861  0.57251991  0.93778986  1 0.126135
  C  C22  1  0.69417680  0.92638686  0.28267918  1 0.13185
  C  C23  1  0.71940120  0.89660760  0.15465417  1 0.137705
  C  C24  1  0.53720085  0.83132153  0.14337242  1 -0.097787
  C  C25  1  0.64064059  0.84753549  0.08322875  1 -0.150617
  C  C26  1  0.50934681  0.86378769  0.27119586  1 -0.037197
  C  C27  1  0.58842381  0.91061372  0.34235619  1 -0.156444
  C  C28  1  0.38569807  0.85765768  0.32661800  1 0.585575
  C  C29  1  0.08221255  0.29067700  0.21776189  1 0.132324
  C  C30  1  0.10905354  0.26183142  0.34817921  1 0.13652
  C  C31  1  0.14023332  0.34695262  0.42656122  1 -0.150716
  C  C32  1  0.14173964  0.46077314  0.37067971  1 -0.095759
  C  C33  1  0.11368759  0.49115866  0.23998640  1 -0.038364
  C  C34  1  0.08517612  0.40557263  0.16196408  1 -0.152355
  C  C35  1  0.10638819  0.62270984  0.18825418  1 0.586971
  C  C36  1  0.30582318  0.07361314  0.71732078  1 0.132475
  C  C37  1  0.28059880  0.10339238  0.84534583  1 0.139094
  C  C38  1  0.46279914  0.16867848  0.85662759  1 -0.096042
  C  C39  1  0.35935942  0.15246451  0.91677127  1 -0.15076
  C  C40  1  0.49065319  0.13621230  0.72880411  1 -0.036362
  C  C41  1  0.41157619  0.08938628  0.65764378  1 -0.157199
  C  C42  1  0.61430182  0.14234223  0.67338193  1 0.588172
  C  C43  1  0.91778743  0.70932299  0.78223808  1 0.132774
  C  C44  1  0.89094643  0.73816854  0.65182083  1 0.137174
  C  C45  1  0.85976667  0.65304740  0.57343880  1 -0.151653
  C  C46  1  0.85826036  0.53922685  0.62932031  1 -0.094128
  C  C47  1  0.88631241  0.50884135  0.76001358  1 -0.037489
  C  C48  1  0.91482388  0.59442738  0.83803591  1 -0.153972
  C  C49  1  0.89361180  0.37729018  0.81174578  1 0.590056
  N  N50  1  0.82946357  0.92057387  0.12669557  1 -0.244766
  N  N51  1  0.87025610  0.96044655  0.23105466  1 -0.025595
  N  N52  1  0.79123071  0.96600916  0.32644719  1 -0.24108
  N  N53  1  0.05692933  0.18830993  0.16861757  1 -0.240635
  N  N54  1  0.06687348  0.10394115  0.26370344  1 -0.006234
  N  N55  1  0.09786418  0.14449136  0.37200868  1 -0.238358
  N  N56  1  0.17053646  0.07942625  0.87330443  1 -0.243186
  N  N57  1  0.12974439  0.03955349  0.76894531  1 -0.048889
  N  N58  1  0.20876933  0.03399081  0.67355275  1 -0.23827
  N  N59  1  0.94307067  0.81169004  0.83138241  1 -0.237854
  N  N60  1  0.93312637  0.89605869  0.73629651  1 -0.036291
  N  N61  1  0.90213579  0.85550856  0.62799141  1 -0.236138
  O  O62  1  0.11193900  0.92118021  0.06472918  1 -0.777674
  O  O63  1  0.06883030  0.88816079  0.44036806  1 -0.784084
  O  O64  1  0.36082757  0.89205690  0.44096972  1 -0.56205
  O  O65  1  0.31012414  0.82437555  0.25554499  1 -0.522038
  O  O66  1  0.07459326  0.65226396  0.07125702  1 -0.557449
  O  O67  1  0.12822276  0.69879782  0.26508746  1 -0.508674
  O  O68  1  0.88806119  0.07881964  0.93527138  1 -0.825945
  O  O69  1  0.93116984  0.11183909  0.55963160  1 -0.832351
  O  O70  1  0.63917231  0.10794314  0.55903032  1 -0.561725
  O  O71  1  0.68987563  0.17562452  0.74445502  1 -0.53915
  O  O72  1  0.92540682  0.34773593  0.92874297  1 -0.558196
  O  O73  1  0.87177733  0.30120232  0.73491260  1 -0.533766
