# generated using pymatgen
data_Zn2H26C42N2O11
_symmetry_space_group_name_H-M   'P 1'
_cell_length_a   13.92165228
_cell_length_b   21.13690765
_cell_length_c   21.53506110
_cell_angle_alpha   90.00000000
_cell_angle_beta   90.00000000
_cell_angle_gamma   90.00000000
_symmetry_Int_Tables_number   1
_chemical_formula_structural   Zn2H26C42N2O11
_chemical_formula_sum   'Zn8 H104 C168 N8 O44'
_cell_volume   6336.92169136
_cell_formula_units_Z   4
loop_
 _symmetry_equiv_pos_site_id
 _symmetry_equiv_pos_as_xyz
  1  'x, y, z'
loop_
 _atom_site_type_symbol
 _atom_site_label
 _atom_site_symmetry_multiplicity
 _atom_site_fract_x
 _atom_site_fract_y
 _atom_site_fract_z
 _atom_site_occupancy
 _atom_site_charge
  Zn  Zn0  1  0.41199985  0.50000000  0.00000000  1 0.831001
  Zn  Zn1  1  0.91199985  -0.00000000  0.50000000  1 0.831001
  Zn  Zn2  1  0.58800015  0.50000000  0.00000000  1 0.831
  Zn  Zn3  1  0.08800015  -0.00000000  0.50000000  1 0.831
  Zn  Zn4  1  0.50000000  0.09842828  0.50000000  1 0.80921
  Zn  Zn5  1  0.00000000  0.59842828  0.00000000  1 0.80921
  Zn  Zn6  1  0.50000000  0.90157172  0.50000000  1 0.809209
  Zn  Zn7  1  0.00000000  0.40157172  0.00000000  1 0.809209
  H  H8  1  0.40527175  0.44775306  0.28226503  1 0.111051
  H  H9  1  0.69300762  0.29780863  0.21422021  1 0.088477
  H  H10  1  0.64336223  0.33995741  0.12115966  1 0.121094
  H  H11  1  0.26518200  0.35362936  0.31930925  1 0.107006
  H  H12  1  0.26317390  0.25485838  0.38073471  1 0.113618
  H  H13  1  0.52699283  0.09725706  0.28497063  1 0.000709
  H  H14  1  0.90527175  0.94775306  0.78226503  1 0.111051
  H  H15  1  0.19300762  0.79780863  0.71422021  1 0.088477
  H  H16  1  0.14336223  0.83995741  0.62115966  1 0.121094
  H  H17  1  0.76518200  0.85362936  0.81930925  1 0.107006
  H  H18  1  0.76317390  0.75485838  0.88073471  1 0.113618
  H  H19  1  0.02699283  0.59725706  0.78497063  1 0.000709
  H  H20  1  0.59472825  0.55224694  0.28226503  1 0.111051
  H  H21  1  0.30699238  0.70219137  0.21422021  1 0.088477
  H  H22  1  0.35663777  0.66004259  0.12115966  1 0.121094
  H  H23  1  0.73481800  0.64637064  0.31930925  1 0.107006
  H  H24  1  0.73682610  0.74514162  0.38073471  1 0.113618
  H  H25  1  0.47300717  0.90274294  0.28497063  1 0.000709
  H  H26  1  0.09472825  0.05224694  0.78226503  1 0.111051
  H  H27  1  0.80699238  0.20219137  0.71422021  1 0.088477
  H  H28  1  0.85663777  0.16004259  0.62115966  1 0.121094
  H  H29  1  0.23481800  0.14637064  0.81930925  1 0.107006
  H  H30  1  0.23682610  0.24514162  0.88073471  1 0.113618
  H  H31  1  0.97300717  0.40274294  0.78497063  1 0.000709
  H  H32  1  0.59472825  0.44775306  0.71773497  1 0.111051
  H  H33  1  0.30699238  0.29780863  0.78577979  1 0.088477
  H  H34  1  0.35663777  0.33995741  0.87884034  1 0.121095
  H  H35  1  0.73481800  0.35362936  0.68069075  1 0.107004
  H  H36  1  0.73682610  0.25485838  0.61926529  1 0.113619
  H  H37  1  0.47300717  0.09725706  0.71502937  1 0.000707
  H  H38  1  0.09472825  0.94775306  0.21773497  1 0.111051
  H  H39  1  0.80699238  0.79780863  0.28577979  1 0.088477
  H  H40  1  0.85663777  0.83995741  0.37884034  1 0.121095
  H  H41  1  0.23481800  0.85362936  0.18069075  1 0.107004
  H  H42  1  0.23682610  0.75485838  0.11926529  1 0.113619
  H  H43  1  0.97300717  0.59725706  0.21502937  1 0.000707
  H  H44  1  0.40527175  0.55224694  0.71773497  1 0.111051
  H  H45  1  0.69300762  0.70219137  0.78577979  1 0.088477
  H  H46  1  0.64336223  0.66004259  0.87884034  1 0.121095
  H  H47  1  0.26518200  0.64637064  0.68069075  1 0.107004
  H  H48  1  0.26317390  0.74514162  0.61926529  1 0.113619
  H  H49  1  0.52699283  0.90274294  0.71502937  1 0.000707
  H  H50  1  0.90527175  0.05224694  0.21773497  1 0.111051
  H  H51  1  0.19300762  0.20219137  0.28577979  1 0.088477
  H  H52  1  0.14336223  0.16004259  0.37884034  1 0.121095
  H  H53  1  0.76518200  0.14637064  0.18069075  1 0.107004
  H  H54  1  0.76317390  0.24514162  0.11926529  1 0.113619
  H  H55  1  0.02699283  0.40274294  0.21502937  1 0.000707
  H  H56  1  0.59472825  0.55224694  0.71773497  1 0.111049
  H  H57  1  0.30699238  0.70219137  0.78577979  1 0.088477
  H  H58  1  0.35663777  0.66004259  0.87884034  1 0.121094
  H  H59  1  0.73481800  0.64637064  0.68069075  1 0.106997
  H  H60  1  0.73682610  0.74514162  0.61926529  1 0.113618
  H  H61  1  0.47300717  0.90274294  0.71502937  1 0.001195
  H  H62  1  0.09472825  0.05224694  0.21773497  1 0.111049
  H  H63  1  0.80699238  0.20219137  0.28577979  1 0.088477
  H  H64  1  0.85663777  0.16004259  0.37884034  1 0.121094
  H  H65  1  0.23481800  0.14637064  0.18069075  1 0.106997
  H  H66  1  0.23682610  0.24514162  0.11926529  1 0.113618
  H  H67  1  0.97300717  0.40274294  0.21502937  1 0.001195
  H  H68  1  0.40527175  0.44775306  0.71773497  1 0.111049
  H  H69  1  0.69300762  0.29780863  0.78577979  1 0.088477
  H  H70  1  0.64336223  0.33995741  0.87884034  1 0.121094
  H  H71  1  0.26518200  0.35362936  0.68069075  1 0.106997
  H  H72  1  0.26317390  0.25485838  0.61926529  1 0.113618
  H  H73  1  0.52699283  0.09725706  0.71502937  1 0.001195
  H  H74  1  0.90527175  0.94775306  0.21773497  1 0.111049
  H  H75  1  0.19300762  0.79780863  0.28577979  1 0.088477
  H  H76  1  0.14336223  0.83995741  0.37884034  1 0.121094
  H  H77  1  0.76518200  0.85362936  0.18069075  1 0.106997
  H  H78  1  0.76317390  0.75485838  0.11926529  1 0.113618
  H  H79  1  0.02699283  0.59725706  0.21502937  1 0.001195
  H  H80  1  0.40527175  0.55224694  0.28226503  1 0.111049
  H  H81  1  0.69300762  0.70219137  0.21422021  1 0.088477
  H  H82  1  0.64336223  0.66004259  0.12115966  1 0.121094
  H  H83  1  0.26518200  0.64637064  0.31930925  1 0.106996
  H  H84  1  0.26317390  0.74514162  0.38073471  1 0.113619
  H  H85  1  0.52699283  0.90274294  0.28497063  1 0.001194
  H  H86  1  0.90527175  0.05224694  0.78226503  1 0.111049
  H  H87  1  0.19300762  0.20219137  0.71422021  1 0.088477
  H  H88  1  0.14336223  0.16004259  0.62115966  1 0.121094
  H  H89  1  0.76518200  0.14637064  0.81930925  1 0.106996
  H  H90  1  0.76317390  0.24514162  0.88073471  1 0.113619
  H  H91  1  0.02699283  0.40274294  0.78497063  1 0.001194
  H  H92  1  0.59472825  0.44775306  0.28226503  1 0.111049
  H  H93  1  0.30699238  0.29780863  0.21422021  1 0.088477
  H  H94  1  0.35663777  0.33995741  0.12115966  1 0.121094
  H  H95  1  0.73481800  0.35362936  0.31930925  1 0.106996
  H  H96  1  0.73682610  0.25485838  0.38073471  1 0.113619
  H  H97  1  0.47300717  0.09725706  0.28497063  1 0.001194
  H  H98  1  0.09472825  0.94775306  0.78226503  1 0.111049
  H  H99  1  0.80699238  0.79780863  0.71422021  1 0.088477
  H  H100  1  0.85663777  0.83995741  0.62115966  1 0.121094
  H  H101  1  0.23481800  0.85362936  0.81930925  1 0.106996
  H  H102  1  0.23682610  0.75485838  0.88073471  1 0.113619
  H  H103  1  0.97300717  0.59725706  0.78497063  1 0.001194
  H  H104  1  0.22962515  0.40114416  0.00000000  1 0.178101
  H  H105  1  0.72962515  0.90114416  0.50000000  1 0.178101
  H  H106  1  0.77037485  0.59885584  0.00000000  1 0.178101
  H  H107  1  0.27037485  0.09885584  0.50000000  1 0.178101
  H  H108  1  0.77037485  0.40114416  0.00000000  1 0.178101
  H  H109  1  0.27037485  0.90114416  0.50000000  1 0.178101
  H  H110  1  0.22962515  0.59885584  0.00000000  1 0.178101
  H  H111  1  0.72962515  0.09885584  0.50000000  1 0.178101
  C  C112  1  0.45193459  0.40648633  0.28335117  1 -0.141302
  C  C113  1  0.41157287  0.33958354  0.28017071  1 0.119167
  C  C114  1  0.62482361  0.32342774  0.21463187  1 -0.101786
  C  C115  1  0.59012458  0.34298676  0.15864978  1 -0.115725
  C  C116  1  0.32837705  0.32318497  0.32195194  1 -0.153458
  C  C117  1  0.32671168  0.26864153  0.35438977  1 -0.105944
  C  C118  1  0.41078720  0.22899292  0.36079175  1 -0.151282
  C  C119  1  0.40715682  0.17876426  0.40352412  1 0.47698
  C  C120  1  0.95193459  0.90648633  0.78335117  1 -0.141302
  C  C121  1  0.91157287  0.83958354  0.78017071  1 0.119167
  C  C122  1  0.12482361  0.82342774  0.71463187  1 -0.101786
  C  C123  1  0.09012458  0.84298676  0.65864978  1 -0.115725
  C  C124  1  0.82837705  0.82318497  0.82195194  1 -0.153458
  C  C125  1  0.82671168  0.76864153  0.85438977  1 -0.105944
  C  C126  1  0.91078720  0.72899292  0.86079175  1 -0.151282
  C  C127  1  0.90715682  0.67876426  0.90352412  1 0.47698
  C  C128  1  0.54806541  0.59351367  0.28335117  1 -0.141301
  C  C129  1  0.58842713  0.66041646  0.28017071  1 0.119167
  C  C130  1  0.37517639  0.67657226  0.21463187  1 -0.101786
  C  C131  1  0.40987542  0.65701324  0.15864978  1 -0.115725
  C  C132  1  0.67162295  0.67681503  0.32195194  1 -0.153458
  C  C133  1  0.67328832  0.73135847  0.35438977  1 -0.105944
  C  C134  1  0.58921280  0.77100708  0.36079175  1 -0.151282
  C  C135  1  0.59284318  0.82123574  0.40352412  1 0.47698
  C  C136  1  0.04806541  0.09351367  0.78335117  1 -0.141301
  C  C137  1  0.08842713  0.16041646  0.78017071  1 0.119167
  C  C138  1  0.87517639  0.17657226  0.71463187  1 -0.101786
  C  C139  1  0.90987542  0.15701324  0.65864978  1 -0.115725
  C  C140  1  0.17162295  0.17681503  0.82195194  1 -0.153458
  C  C141  1  0.17328832  0.23135847  0.85438977  1 -0.105944
  C  C142  1  0.08921280  0.27100708  0.86079175  1 -0.151282
  C  C143  1  0.09284318  0.32123574  0.90352412  1 0.47698
  C  C144  1  0.54806541  0.40648633  0.71664883  1 -0.141302
  C  C145  1  0.58842713  0.33958354  0.71982929  1 0.119167
  C  C146  1  0.37517639  0.32342774  0.78536813  1 -0.101786
  C  C147  1  0.40987542  0.34298676  0.84135022  1 -0.115725
  C  C148  1  0.67162295  0.32318497  0.67804806  1 -0.153457
  C  C149  1  0.67328832  0.26864153  0.64561023  1 -0.105944
  C  C150  1  0.58921280  0.22899292  0.63920825  1 -0.151282
  C  C151  1  0.59284318  0.17876426  0.59647588  1 0.47698
  C  C152  1  0.04806541  0.90648633  0.21664883  1 -0.141302
  C  C153  1  0.08842713  0.83958354  0.21982929  1 0.119167
  C  C154  1  0.87517639  0.82342774  0.28536813  1 -0.101786
  C  C155  1  0.90987542  0.84298676  0.34135022  1 -0.115725
  C  C156  1  0.17162295  0.82318497  0.17804806  1 -0.153457
  C  C157  1  0.17328832  0.76864153  0.14561023  1 -0.105944
  C  C158  1  0.08921280  0.72899292  0.13920825  1 -0.151282
  C  C159  1  0.09284318  0.67876426  0.09647588  1 0.47698
  C  C160  1  0.45193459  0.59351367  0.71664883  1 -0.141301
  C  C161  1  0.41157287  0.66041646  0.71982929  1 0.119167
  C  C162  1  0.62482361  0.67657226  0.78536813  1 -0.101786
  C  C163  1  0.59012458  0.65701324  0.84135022  1 -0.115725
  C  C164  1  0.32837705  0.67681503  0.67804806  1 -0.153457
  C  C165  1  0.32671168  0.73135847  0.64561023  1 -0.105944
  C  C166  1  0.41078720  0.77100708  0.63920825  1 -0.151282
  C  C167  1  0.40715682  0.82123574  0.59647588  1 0.47698
  C  C168  1  0.95193459  0.09351367  0.21664883  1 -0.141301
  C  C169  1  0.91157287  0.16041646  0.21982929  1 0.119167
  C  C170  1  0.12482361  0.17657226  0.28536813  1 -0.101786
  C  C171  1  0.09012458  0.15701324  0.34135022  1 -0.115725
  C  C172  1  0.82837705  0.17681503  0.17804806  1 -0.153457
  C  C173  1  0.82671168  0.23135847  0.14561023  1 -0.105944
  C  C174  1  0.91078720  0.27100708  0.13920825  1 -0.151282
  C  C175  1  0.90715682  0.32123574  0.09647588  1 0.47698
  C  C176  1  0.54806541  0.59351367  0.71664883  1 -0.141237
  C  C177  1  0.58842713  0.66041646  0.71982929  1 0.119162
  C  C178  1  0.37517639  0.67657226  0.78536813  1 -0.101785
  C  C179  1  0.40987542  0.65701324  0.84135022  1 -0.115723
  C  C180  1  0.67162295  0.67681503  0.67804806  1 -0.153457
  C  C181  1  0.67328832  0.73135847  0.64561023  1 -0.105944
  C  C182  1  0.58921280  0.77100708  0.63920825  1 -0.151273
  C  C183  1  0.59284318  0.82123574  0.59647588  1 0.476988
  C  C184  1  0.04806541  0.09351367  0.21664883  1 -0.141237
  C  C185  1  0.08842713  0.16041646  0.21982929  1 0.119162
  C  C186  1  0.87517639  0.17657226  0.28536813  1 -0.101785
  C  C187  1  0.90987542  0.15701324  0.34135022  1 -0.115723
  C  C188  1  0.17162295  0.17681503  0.17804806  1 -0.153457
  C  C189  1  0.17328832  0.23135847  0.14561023  1 -0.105944
  C  C190  1  0.08921280  0.27100708  0.13920825  1 -0.151273
  C  C191  1  0.09284318  0.32123574  0.09647588  1 0.476988
  C  C192  1  0.45193459  0.40648633  0.71664883  1 -0.141237
  C  C193  1  0.41157287  0.33958354  0.71982929  1 0.119162
  C  C194  1  0.62482361  0.32342774  0.78536813  1 -0.101785
  C  C195  1  0.59012458  0.34298676  0.84135022  1 -0.115723
  C  C196  1  0.32837705  0.32318497  0.67804806  1 -0.153457
  C  C197  1  0.32671168  0.26864153  0.64561023  1 -0.105944
  C  C198  1  0.41078720  0.22899292  0.63920825  1 -0.151273
  C  C199  1  0.40715682  0.17876426  0.59647588  1 0.476988
  C  C200  1  0.95193459  0.90648633  0.21664883  1 -0.141237
  C  C201  1  0.91157287  0.83958354  0.21982929  1 0.119162
  C  C202  1  0.12482361  0.82342774  0.28536813  1 -0.101785
  C  C203  1  0.09012458  0.84298676  0.34135022  1 -0.115723
  C  C204  1  0.82837705  0.82318497  0.17804806  1 -0.153457
  C  C205  1  0.82671168  0.76864153  0.14561023  1 -0.105944
  C  C206  1  0.91078720  0.72899292  0.13920825  1 -0.151273
  C  C207  1  0.90715682  0.67876426  0.09647588  1 0.476988
  C  C208  1  0.45193459  0.59351367  0.28335117  1 -0.141237
  C  C209  1  0.41157287  0.66041646  0.28017071  1 0.119162
  C  C210  1  0.62482361  0.67657226  0.21463187  1 -0.101785
  C  C211  1  0.59012458  0.65701324  0.15864978  1 -0.115723
  C  C212  1  0.32837705  0.67681503  0.32195194  1 -0.153457
  C  C213  1  0.32671168  0.73135847  0.35438977  1 -0.105944
  C  C214  1  0.41078720  0.77100708  0.36079175  1 -0.151273
  C  C215  1  0.40715682  0.82123574  0.40352412  1 0.476988
  C  C216  1  0.95193459  0.09351367  0.78335117  1 -0.141237
  C  C217  1  0.91157287  0.16041646  0.78017071  1 0.119162
  C  C218  1  0.12482361  0.17657226  0.71463187  1 -0.101785
  C  C219  1  0.09012458  0.15701324  0.65864978  1 -0.115723
  C  C220  1  0.82837705  0.17681503  0.82195194  1 -0.153457
  C  C221  1  0.82671168  0.23135847  0.85438977  1 -0.105944
  C  C222  1  0.91078720  0.27100708  0.86079175  1 -0.151273
  C  C223  1  0.90715682  0.32123574  0.90352412  1 0.476988
  C  C224  1  0.54806541  0.40648633  0.28335117  1 -0.141237
  C  C225  1  0.58842713  0.33958354  0.28017071  1 0.119162
  C  C226  1  0.37517639  0.32342774  0.21463187  1 -0.101785
  C  C227  1  0.40987542  0.34298676  0.15864978  1 -0.115723
  C  C228  1  0.67162295  0.32318497  0.32195194  1 -0.153457
  C  C229  1  0.67328832  0.26864153  0.35438977  1 -0.105944
  C  C230  1  0.58921280  0.22899292  0.36079175  1 -0.151273
  C  C231  1  0.59284318  0.17876426  0.40352412  1 0.476988
  C  C232  1  0.04806541  0.90648633  0.78335117  1 -0.141237
  C  C233  1  0.08842713  0.83958354  0.78017071  1 0.119162
  C  C234  1  0.87517639  0.82342774  0.71463187  1 -0.101785
  C  C235  1  0.90987542  0.84298676  0.65864978  1 -0.115723
  C  C236  1  0.17162295  0.82318497  0.82195194  1 -0.153457
  C  C237  1  0.17328832  0.76864153  0.85438977  1 -0.105944
  C  C238  1  0.08921280  0.72899292  0.86079175  1 -0.151273
  C  C239  1  0.09284318  0.67876426  0.90352412  1 0.476988
  C  C240  1  0.50000000  0.41156145  0.08586017  1 0.5736
  C  C241  1  0.50000000  0.36703623  0.13891200  1 -0.014528
  C  C242  1  0.50000000  0.30108802  0.29369376  1 0.032224
  C  C243  1  0.50000000  0.24952872  0.33501743  1 0.055056
  C  C244  1  0.00000000  0.91156145  0.58586017  1 0.5736
  C  C245  1  0.00000000  0.86703623  0.63891200  1 -0.014528
  C  C246  1  0.00000000  0.80108802  0.79369376  1 0.032224
  C  C247  1  0.00000000  0.74952872  0.83501743  1 0.055056
  C  C248  1  0.50000000  0.58843855  0.08586017  1 0.5736
  C  C249  1  0.50000000  0.63296377  0.13891200  1 -0.014528
  C  C250  1  0.50000000  0.69891198  0.29369376  1 0.032224
  C  C251  1  0.50000000  0.75047128  0.33501743  1 0.055056
  C  C252  1  0.00000000  0.08843855  0.58586017  1 0.5736
  C  C253  1  0.00000000  0.13296377  0.63891200  1 -0.014528
  C  C254  1  0.00000000  0.19891198  0.79369376  1 0.032224
  C  C255  1  0.00000000  0.25047128  0.83501743  1 0.055056
  C  C256  1  0.50000000  0.41156145  0.91413983  1 0.573601
  C  C257  1  0.50000000  0.36703623  0.86108800  1 -0.014528
  C  C258  1  0.50000000  0.30108802  0.70630624  1 0.032224
  C  C259  1  0.50000000  0.24952872  0.66498257  1 0.055056
  C  C260  1  0.00000000  0.91156145  0.41413983  1 0.573601
  C  C261  1  0.00000000  0.86703623  0.36108800  1 -0.014528
  C  C262  1  0.00000000  0.80108802  0.20630624  1 0.032224
  C  C263  1  0.00000000  0.74952872  0.16498257  1 0.055056
  C  C264  1  0.50000000  0.58843855  0.91413983  1 0.5736
  C  C265  1  0.50000000  0.63296377  0.86108800  1 -0.014528
  C  C266  1  0.50000000  0.69891198  0.70630624  1 0.032224
  C  C267  1  0.50000000  0.75047128  0.66498257  1 0.055056
  C  C268  1  0.00000000  0.08843855  0.41413983  1 0.5736
  C  C269  1  0.00000000  0.13296377  0.36108800  1 -0.014528
  C  C270  1  0.00000000  0.19891198  0.20630624  1 0.032224
  C  C271  1  0.00000000  0.25047128  0.16498257  1 0.055056
  C  C272  1  0.20014069  0.44859559  0.00000000  1 0.279959
  C  C273  1  0.70014069  0.94859559  0.50000000  1 0.279959
  C  C274  1  0.79985931  0.55140441  0.00000000  1 0.279959
  C  C275  1  0.29985931  0.05140441  0.50000000  1 0.279959
  C  C276  1  0.79985931  0.44859559  0.00000000  1 0.279958
  C  C277  1  0.29985931  0.94859559  0.50000000  1 0.279958
  C  C278  1  0.20014069  0.55140441  0.00000000  1 0.279958
  C  C279  1  0.70014069  0.05140441  0.50000000  1 0.279958
  N  N280  1  0.11097299  0.46688829  0.00000000  1 -0.187145
  N  N281  1  0.61097299  0.96688829  0.50000000  1 -0.187145
  N  N282  1  0.88902701  0.53311171  0.00000000  1 -0.187146
  N  N283  1  0.38902701  0.03311171  0.50000000  1 -0.187146
  N  N284  1  0.88902701  0.46688829  0.00000000  1 -0.187141
  N  N285  1  0.38902701  0.96688829  0.50000000  1 -0.187141
  N  N286  1  0.11097299  0.53311171  0.00000000  1 -0.187141
  N  N287  1  0.61097299  0.03311171  0.50000000  1 -0.187141
  O  O288  1  0.41836761  0.43122162  0.06583480  1 -0.550689
  O  O289  1  0.33859521  0.15347613  0.42991568  1 -0.498238
  O  O290  1  0.91836761  0.93122162  0.56583480  1 -0.550689
  O  O291  1  0.83859521  0.65347613  0.92991568  1 -0.498238
  O  O292  1  0.58163239  0.56877838  0.06583480  1 -0.550688
  O  O293  1  0.66140479  0.84652387  0.42991568  1 -0.498238
  O  O294  1  0.08163239  0.06877838  0.56583480  1 -0.550688
  O  O295  1  0.16140479  0.34652387  0.92991568  1 -0.498238
  O  O296  1  0.58163239  0.43122162  0.93416520  1 -0.550689
  O  O297  1  0.66140479  0.15347613  0.57008432  1 -0.498238
  O  O298  1  0.08163239  0.93122162  0.43416520  1 -0.550689
  O  O299  1  0.16140479  0.65347613  0.07008432  1 -0.498238
  O  O300  1  0.41836761  0.56877838  0.93416520  1 -0.550689
  O  O301  1  0.33859521  0.84652387  0.57008432  1 -0.498238
  O  O302  1  0.91836761  0.06877838  0.43416520  1 -0.550689
  O  O303  1  0.83859521  0.34652387  0.07008432  1 -0.498238
  O  O304  1  0.58163239  0.56877838  0.93416520  1 -0.550688
  O  O305  1  0.66140479  0.84652387  0.57008432  1 -0.498238
  O  O306  1  0.08163239  0.06877838  0.43416520  1 -0.550688
  O  O307  1  0.16140479  0.34652387  0.07008432  1 -0.498238
  O  O308  1  0.41836761  0.43122162  0.93416520  1 -0.550689
  O  O309  1  0.33859521  0.15347613  0.57008432  1 -0.498238
  O  O310  1  0.91836761  0.93122162  0.43416520  1 -0.550689
  O  O311  1  0.83859521  0.65347613  0.07008432  1 -0.498238
  O  O312  1  0.41836761  0.56877838  0.06583480  1 -0.550688
  O  O313  1  0.33859521  0.84652387  0.42991568  1 -0.498238
  O  O314  1  0.91836761  0.06877838  0.56583480  1 -0.550688
  O  O315  1  0.83859521  0.34652387  0.92991568  1 -0.498238
  O  O316  1  0.58163239  0.43122162  0.06583480  1 -0.550688
  O  O317  1  0.66140479  0.15347613  0.42991568  1 -0.498238
  O  O318  1  0.08163239  0.93122162  0.56583480  1 -0.550688
  O  O319  1  0.16140479  0.65347613  0.92991568  1 -0.498238
  O  O320  1  0.25827693  0.50000000  0.00000000  1 -0.057874
  O  O321  1  0.75827693  -0.00000000  0.50000000  1 -0.057874
  O  O322  1  0.74172307  0.50000000  0.00000000  1 -0.057874
  O  O323  1  0.24172307  -0.00000000  0.50000000  1 -0.057874
  O  O324  1  0.50000000  0.15184328  0.42109694  1 -0.34835
  O  O325  1  0.00000000  0.65184328  0.92109694  1 -0.34835
  O  O326  1  0.50000000  0.84815672  0.42109694  1 -0.34835
  O  O327  1  0.00000000  0.34815672  0.92109694  1 -0.34835
  O  O328  1  0.50000000  0.15184328  0.57890306  1 -0.34835
  O  O329  1  0.00000000  0.65184328  0.07890306  1 -0.34835
  O  O330  1  0.50000000  0.84815672  0.57890306  1 -0.34835
  O  O331  1  0.00000000  0.34815672  0.07890306  1 -0.34835
