# generated using pymatgen
data_Zn3H56C88(NO3)4
_symmetry_space_group_name_H-M   'P 1'
_cell_length_a   17.86414973
_cell_length_b   20.47682253
_cell_length_c   21.93025479
_cell_angle_alpha   63.51901349
_cell_angle_beta   75.75654249
_cell_angle_gamma   83.95363753
_symmetry_Int_Tables_number   1
_chemical_formula_structural   Zn3H56C88(NO3)4
_chemical_formula_sum   'Zn6 H112 C176 N8 O24'
_cell_volume   6959.62632188
_cell_formula_units_Z   2
loop_
 _symmetry_equiv_pos_site_id
 _symmetry_equiv_pos_as_xyz
  1  'x, y, z'
loop_
 _atom_site_type_symbol
 _atom_site_label
 _atom_site_symmetry_multiplicity
 _atom_site_fract_x
 _atom_site_fract_y
 _atom_site_fract_z
 _atom_site_occupancy
 _atom_site_charge
  Zn  Zn0  1  0.53778947  0.10447032  0.04925057  1 0.835728
  Zn  Zn1  1  0.72338237  0.10135933  0.09348902  1 0.962354
  Zn  Zn2  1  0.90887617  0.04429150  0.09029931  1 0.82478
  Zn  Zn3  1  0.46221053  0.89552968  0.95074943  1 0.835728
  Zn  Zn4  1  0.27661763  0.89864067  0.90651098  1 0.962354
  Zn  Zn5  1  0.09112383  0.95570850  0.90970069  1 0.82478
  H  H6  1  0.00619034  0.02514145  0.18586416  1 0.105797
  H  H7  1  0.24592121  0.13468218  0.12363591  1 0.11639
  H  H8  1  0.14569855  0.03786875  0.18180202  1 0.120642
  H  H9  1  0.38704496  0.14624477  0.11451901  1 0.104024
  H  H10  1  0.30977550  0.00254544  0.01024884  1 0.135891
  H  H11  1  0.05531941  0.06626150  0.97701525  1 0.09762
  H  H12  1  0.70902632  0.89601168  0.23211585  1 0.112638
  H  H13  1  0.88587748  0.81445617  0.14536412  1 0.107988
  H  H14  1  0.19568246  0.07739753  0.96433789  1 0.134901
  H  H15  1  0.59429815  0.12605364  0.83030931  1 0.108818
  H  H16  1  0.68140802  0.23869228  0.59956906  1 0.095299
  H  H17  1  0.71603780  0.76155569  0.29612870  1 0.096062
  H  H18  1  0.52522954  0.64398350  0.27549577  1 0.093758
  H  H19  1  0.52777322  0.50943604  0.34036125  1 0.1121
  H  H20  1  0.69052709  0.29538785  0.47314704  1 0.107708
  H  H21  1  0.55860260  0.73998488  0.18484305  1 0.101939
  H  H22  1  0.44584840  0.02175654  0.00398788  1 0.092678
  H  H23  1  0.97445384  0.14258871  0.87145785  1 0.099372
  H  H24  1  0.55352455  0.23607169  0.37906300  1 0.100402
  H  H25  1  0.58945610  0.49195681  0.48358408  1 0.113776
  H  H26  1  0.69062924  0.27346205  0.08361107  1 0.11181
  H  H27  1  0.68794937  0.47529904  0.26093849  1 0.117062
  H  H28  1  0.75178909  0.52169845  0.37403648  1 0.105784
  H  H29  1  0.61501408  0.18680672  0.70128653  1 0.099935
  H  H30  1  0.58280730  0.43577763  0.60955671  1 0.093534
  H  H31  1  0.59212509  0.33420702  0.83351990  1 0.114184
  H  H32  1  0.74656395  0.19950529  0.76484966  1 0.090552
  H  H33  1  0.54993187  0.87439537  0.12398149  1 0.100371
  H  H34  1  0.49832129  0.22310340  0.30623488  1 0.098244
  H  H35  1  0.56869471  0.29825153  0.44836056  1 0.116342
  H  H36  1  0.80009456  0.39922711  0.37463113  1 0.112843
  H  H37  1  0.87028064  0.70379934  0.40110282  1 0.101331
  H  H38  1  0.72855234  0.14004458  0.89404771  1 0.112253
  H  H39  1  0.75125150  0.65567994  0.30684998  1 0.09085
  H  H40  1  0.66913083  0.41502144  0.19122231  1 0.103853
  H  H41  1  0.73602705  0.21515590  0.33172461  1 0.099318
  H  H42  1  0.48569457  0.16329724  0.23249991  1 0.107359
  H  H43  1  0.80153401  0.18290106  0.65917783  1 0.097214
  H  H44  1  0.89696038  0.68078519  0.21051640  1 0.102192
  H  H45  1  0.62465386  0.39543240  0.70339897  1 0.098211
  H  H46  1  0.71710916  0.16300413  0.25333049  1 0.111225
  H  H47  1  0.70456302  0.33304019  0.15673036  1 0.100676
  H  H48  1  0.99239402  0.20468018  0.74204213  1 0.09228
  H  H49  1  0.86022215  0.83820570  0.33408669  1 0.115717
  H  H50  1  0.97978263  0.39650200  0.53063003  1 0.111652
  H  H51  1  0.81799388  0.25467360  0.53094730  1 0.109684
  H  H52  1  0.96507172  0.58968294  0.25833681  1 0.104202
  H  H53  1  0.97220322  0.45597879  0.31871457  1 0.117187
  H  H54  1  0.77847196  0.32970856  0.31256795  1 0.095996
  H  H55  1  0.96435948  0.32417026  0.65846389  1 0.099861
  H  H56  1  0.96259346  0.15876723  0.17900498  1 0.102775
  H  H57  1  0.98290689  0.20887941  0.25873901  1 0.098012
  H  H58  1  0.82837764  0.59271405  0.44882969  1 0.101345
  H  H59  1  0.83723359  0.45916360  0.50947020  1 0.12017
  H  H60  1  0.98955742  0.25852279  0.44123111  1 0.117683
  H  H61  1  0.96904665  0.18910145  0.37796723  1 0.101421
  H  H62  1  0.99380966  0.97485855  0.81413584  1 0.105797
  H  H63  1  0.75407879  0.86531782  0.87636409  1 0.11639
  H  H64  1  0.85430145  0.96213125  0.81819798  1 0.120642
  H  H65  1  0.61295504  0.85375523  0.88548099  1 0.104024
  H  H66  1  0.69022450  0.99745456  0.98975116  1 0.135891
  H  H67  1  0.94468059  0.93373850  0.02298475  1 0.09762
  H  H68  1  0.29097368  0.10398832  0.76788415  1 0.112638
  H  H69  1  0.11412252  0.18554383  0.85463588  1 0.107987
  H  H70  1  0.80431754  0.92260247  0.03566211  1 0.1349
  H  H71  1  0.40570185  0.87394636  0.16969069  1 0.108818
  H  H72  1  0.31859198  0.76130772  0.40043094  1 0.095299
  H  H73  1  0.28396220  0.23844431  0.70387130  1 0.096062
  H  H74  1  0.47477046  0.35601650  0.72450423  1 0.093758
  H  H75  1  0.47222678  0.49056396  0.65963875  1 0.1121
  H  H76  1  0.30947291  0.70461215  0.52685296  1 0.107708
  H  H77  1  0.44139740  0.26001512  0.81515695  1 0.101939
  H  H78  1  0.55415160  0.97824346  0.99601212  1 0.092678
  H  H79  1  0.02554616  0.85741129  0.12854215  1 0.099372
  H  H80  1  0.44647545  0.76392831  0.62093700  1 0.100402
  H  H81  1  0.41054390  0.50804319  0.51641592  1 0.113776
  H  H82  1  0.30937076  0.72653795  0.91638893  1 0.11181
  H  H83  1  0.31205063  0.52470096  0.73906151  1 0.117062
  H  H84  1  0.24821091  0.47830155  0.62596352  1 0.105784
  H  H85  1  0.38498592  0.81319328  0.29871347  1 0.099935
  H  H86  1  0.41719270  0.56422237  0.39044329  1 0.093534
  H  H87  1  0.40787491  0.66579298  0.16648010  1 0.114184
  H  H88  1  0.25343605  0.80049471  0.23515034  1 0.090552
  H  H89  1  0.45006813  0.12560463  0.87601851  1 0.100371
  H  H90  1  0.50167871  0.77689660  0.69376512  1 0.098244
  H  H91  1  0.43130529  0.70174847  0.55163944  1 0.116342
  H  H92  1  0.19990544  0.60077289  0.62536887  1 0.112843
  H  H93  1  0.12971936  0.29620066  0.59889718  1 0.101331
  H  H94  1  0.27144766  0.85995542  0.10595229  1 0.112253
  H  H95  1  0.24874850  0.34432006  0.69315002  1 0.09085
  H  H96  1  0.33086917  0.58497856  0.80877769  1 0.103853
  H  H97  1  0.26397295  0.78484410  0.66827539  1 0.099318
  H  H98  1  0.51430543  0.83670276  0.76750009  1 0.10736
  H  H99  1  0.19846599  0.81709894  0.34082217  1 0.097215
  H  H100  1  0.10303962  0.31921481  0.78948360  1 0.102192
  H  H101  1  0.37534614  0.60456760  0.29660103  1 0.098211
  H  H102  1  0.28289084  0.83699587  0.74666951  1 0.111225
  H  H103  1  0.29543698  0.66695981  0.84326964  1 0.100676
  H  H104  1  0.00760598  0.79531982  0.25795787  1 0.09228
  H  H105  1  0.13977785  0.16179430  0.66591331  1 0.115717
  H  H106  1  0.02021737  0.60349800  0.46936997  1 0.111652
  H  H107  1  0.18200612  0.74532640  0.46905270  1 0.109684
  H  H108  1  0.03492828  0.41031706  0.74166319  1 0.104202
  H  H109  1  0.02779678  0.54402121  0.68128543  1 0.117187
  H  H110  1  0.22152804  0.67029144  0.68743205  1 0.095996
  H  H111  1  0.03564052  0.67582974  0.34153611  1 0.099861
  H  H112  1  0.03740654  0.84123277  0.82099502  1 0.102775
  H  H113  1  0.01709311  0.79112059  0.74126099  1 0.098012
  H  H114  1  0.17162236  0.40728595  0.55117031  1 0.101345
  H  H115  1  0.16276641  0.54083640  0.49052980  1 0.12017
  H  H116  1  0.01044258  0.74147721  0.55876889  1 0.117682
  H  H117  1  0.03095335  0.81089855  0.62203277  1 0.101421
  C  C118  1  0.05072552  0.03787689  0.13802970  1 0.104495
  C  C119  1  0.28856049  0.10762949  0.09780308  1 -0.18016
  C  C120  1  0.12809361  0.04502175  0.13502233  1 -0.173259
  C  C121  1  0.36652139  0.11486774  0.09265285  1 0.103015
  C  C122  1  0.63980187  0.50735272  0.36090885  1 0.160472
  C  C123  1  0.63838465  0.66043686  0.28548728  1 0.062872
  C  C124  1  0.18284345  0.05934064  0.07230461  1 0.110489
  C  C125  1  0.62353190  0.97437939  0.13837426  1 0.605462
  C  C126  1  0.63688356  0.74043034  0.24607474  1 0.076896
  C  C127  1  0.56846544  0.19089392  0.91812463  1 0.556323
  C  C128  1  0.63819518  0.39704315  0.46923562  1 0.18596
  C  C129  1  0.32330733  0.03589488  0.03334424  1 -0.149524
  C  C130  1  0.07772609  0.05963148  0.02139373  1 0.112411
  C  C131  1  0.60176407  0.28372873  0.23650896  1 0.078093
  C  C132  1  0.58689737  0.21515281  0.15313459  1 -0.044364
  C  C133  1  0.87742505  0.91585689  0.19514396  1 0.555684
  C  C134  1  0.67603887  0.86099599  0.22270574  1 -0.080746
  C  C135  1  0.62082281  0.29598684  0.69208170  1 0.073125
  C  C136  1  0.88151175  0.24838584  0.66827612  1 0.054487
  C  C137  1  0.58130026  0.17738229  0.11032659  1 0.595463
  C  C138  1  0.26553561  0.06751309  0.06759331  1 0.10384
  C  C139  1  0.88263429  0.78975611  0.20141129  1 -0.082605
  C  C140  1  0.63071419  0.39102212  0.36008707  1 0.185533
  C  C141  1  0.62848147  0.89347499  0.17470203  1 -0.059467
  C  C142  1  0.15641358  0.06603704  0.01464193  1 -0.162868
  C  C143  1  0.61073625  0.31986518  0.27924783  1 0.039081
  C  C144  1  0.82765308  0.13194473  0.16091443  1 0.608548
  C  C145  1  0.60013745  0.18523396  0.80204961  1 -0.086815
  C  C146  1  0.84134995  0.10752295  0.96734091  1 0.601779
  C  C147  1  0.65980810  0.29393547  0.57483619  1 -0.110792
  C  C148  1  0.67991376  0.78561060  0.25803885  1 -0.134792
  C  C149  1  0.57583097  0.61767991  0.29556896  1 -0.108873
  C  C150  1  0.59081890  0.22646052  0.84003977  1 -0.030714
  C  C151  1  0.57645656  0.54232024  0.33269103  1 -0.165701
  C  C152  1  0.66486327  0.32556758  0.50332263  1 -0.185683
  C  C153  1  0.59106700  0.77361907  0.19638329  1 -0.129327
  C  C154  1  0.87297881  0.83482879  0.23559959  1 -0.035727
  C  C155  1  0.40016277  0.04554971  0.03071043  1 0.117857
  C  C156  1  0.92495817  0.15574151  0.84746492  1 -0.083462
  C  C157  1  0.89510692  0.60236624  0.34835544  1 0.036441
  C  C158  1  0.58287951  0.28889048  0.35227016  1 -0.118632
  C  C159  1  0.88607136  0.68180132  0.31070269  1 0.061945
  C  C160  1  0.83867548  0.15893726  0.21076000  1 -0.045121
  C  C161  1  0.61011840  0.43641282  0.50891631  1 -0.182609
  C  C162  1  0.89942360  0.33032259  0.52251077  1 0.176792
  C  C163  1  0.86080197  0.21695893  0.29967237  1 0.080982
  C  C164  1  0.64819587  0.26360242  0.13200024  1 -0.075086
  C  C165  1  0.65879295  0.42254742  0.28697594  1 -0.177605
  C  C166  1  0.70228457  0.54882307  0.35214855  1 -0.165573
  C  C167  1  0.61313715  0.21958267  0.72948860  1 -0.141988
  C  C168  1  0.85064567  0.13822211  0.89058297  1 -0.062708
  C  C169  1  0.60691793  0.40434544  0.58025706  1 -0.111529
  C  C170  1  0.59919706  0.30253975  0.80356163  1 -0.091814
  C  C171  1  0.63009024  0.33179593  0.61562269  1 0.044613
  C  C172  1  0.79674237  0.18647579  0.78805248  1 -0.137779
  C  C173  1  0.58644252  0.84902525  0.16153651  1 -0.087924
  C  C174  1  0.54080772  0.23448281  0.25744121  1 -0.142557
  C  C175  1  0.59205441  0.32344084  0.39212061  1 -0.184799
  C  C176  1  0.83717387  0.35329451  0.37493353  1 -0.16596
  C  C177  1  0.87262775  0.72736132  0.34515739  1 -0.145444
  C  C178  1  0.78634322  0.15321812  0.86041344  1 -0.081682
  C  C179  1  0.70123269  0.62439608  0.31487826  1 -0.114535
  C  C180  1  0.87078591  0.20740722  0.74458929  1 0.083298
  C  C181  1  0.64843808  0.38792316  0.24783661  1 -0.112838
  C  C182  1  0.78593120  0.20299320  0.29820331  1 -0.138793
  C  C183  1  0.53308913  0.20113996  0.21620450  1 -0.084019
  C  C184  1  0.84076757  0.22966170  0.63116094  1 -0.113875
  C  C185  1  0.88968286  0.71475539  0.23821230  1 -0.137246
  C  C186  1  0.61586075  0.33643126  0.73084764  1 -0.140073
  C  C187  1  0.77492720  0.17383945  0.25465278  1 -0.073473
  C  C188  1  0.65512715  0.29745784  0.17285058  1 -0.139247
  C  C189  1  0.89667064  0.33358047  0.41118958  1 0.170995
  C  C190  1  0.93475050  0.19069403  0.77539473  1 -0.139114
  C  C191  1  0.86680976  0.80261051  0.30811171  1 -0.088022
  C  C192  1  0.94104933  0.34935804  0.55888063  1 -0.180019
  C  C193  1  0.87241346  0.25451601  0.34043515  1 0.057228
  C  C194  1  0.84986221  0.26951287  0.55936840  1 -0.172718
  C  C195  1  0.93558797  0.56163074  0.31315894  1 -0.115302
  C  C196  1  0.94055751  0.48629363  0.34702090  1 -0.178673
  C  C197  1  0.82495603  0.31379878  0.34057621  1 -0.118276
  C  C198  1  0.90475097  0.44784616  0.41814764  1 0.185505
  C  C199  1  0.93219742  0.30857112  0.63066764  1 -0.110596
  C  C200  1  0.91360922  0.17059465  0.21343715  1 -0.079247
  C  C201  1  0.92452125  0.19847753  0.25794808  1 -0.147605
  C  C202  1  0.86183762  0.56348768  0.42005423  1 -0.110145
  C  C203  1  0.86613006  0.48786381  0.45461179  1 -0.18295
  C  C204  1  0.94407367  0.27420003  0.41203300  1 -0.167559
  C  C205  1  0.93213046  0.23545607  0.37675303  1 -0.122862
  C  C206  1  0.94927448  0.96212311  0.86197030  1 0.104496
  C  C207  1  0.71143951  0.89237051  0.90219692  1 -0.18016
  C  C208  1  0.87190639  0.95497825  0.86497767  1 -0.173259
  C  C209  1  0.63347861  0.88513226  0.90734715  1 0.103015
  C  C210  1  0.36019813  0.49264728  0.63909115  1 0.160472
  C  C211  1  0.36161535  0.33956314  0.71451272  1 0.062872
  C  C212  1  0.81715655  0.94065936  0.92769539  1 0.110489
  C  C213  1  0.37646810  0.02562061  0.86162574  1 0.605462
  C  C214  1  0.36311644  0.25956966  0.75392526  1 0.076896
  C  C215  1  0.43153456  0.80910608  0.08187537  1 0.556323
  C  C216  1  0.36180482  0.60295685  0.53076438  1 0.18596
  C  C217  1  0.67669267  0.96410512  0.96665576  1 -0.149524
  C  C218  1  0.92227391  0.94036852  0.97860627  1 0.112411
  C  C219  1  0.39823593  0.71627127  0.76349104  1 0.078093
  C  C220  1  0.41310263  0.78484719  0.84686541  1 -0.044364
  C  C221  1  0.12257495  0.08414311  0.80485604  1 0.555684
  C  C222  1  0.32396113  0.13900401  0.77729426  1 -0.080746
  C  C223  1  0.37917719  0.70401316  0.30791830  1 0.073125
  C  C224  1  0.11848825  0.75161416  0.33172388  1 0.054487
  C  C225  1  0.41869974  0.82261771  0.88967341  1 0.595463
  C  C226  1  0.73446439  0.93248691  0.93240669  1 0.10384
  C  C227  1  0.11736571  0.21024389  0.79858871  1 -0.082605
  C  C228  1  0.36928581  0.60897788  0.63991293  1 0.185533
  C  C229  1  0.37151853  0.10652501  0.82529797  1 -0.059467
  C  C230  1  0.84358642  0.93396296  0.98535807  1 -0.162868
  C  C231  1  0.38926375  0.68013482  0.72075217  1 0.039081
  C  C232  1  0.17234692  0.86805527  0.83908557  1 0.608548
  C  C233  1  0.39986255  0.81476604  0.19795039  1 -0.086815
  C  C234  1  0.15865005  0.89247705  0.03265909  1 0.601779
  C  C235  1  0.34019190  0.70606453  0.42516381  1 -0.110792
  C  C236  1  0.32008624  0.21438940  0.74196115  1 -0.134792
  C  C237  1  0.42416903  0.38232009  0.70443104  1 -0.108873
  C  C238  1  0.40918110  0.77353948  0.15996023  1 -0.030714
  C  C239  1  0.42354344  0.45767976  0.66730897  1 -0.165701
  C  C240  1  0.33513673  0.67443242  0.49667737  1 -0.185683
  C  C241  1  0.40893300  0.22638093  0.80361671  1 -0.129327
  C  C242  1  0.12702119  0.16517121  0.76440041  1 -0.035727
  C  C243  1  0.59983723  0.95445029  0.96928957  1 0.117857
  C  C244  1  0.07504183  0.84425849  0.15253508  1 -0.083462
  C  C245  1  0.10489308  0.39763376  0.65164456  1 0.036441
  C  C246  1  0.41712049  0.71110952  0.64772984  1 -0.118632
  C  C247  1  0.11392864  0.31819868  0.68929731  1 0.061945
  C  C248  1  0.16132452  0.84106274  0.78924000  1 -0.045121
  C  C249  1  0.38988160  0.56358718  0.49108369  1 -0.182609
  C  C250  1  0.10057640  0.66967741  0.47748923  1 0.176792
  C  C251  1  0.13919803  0.78304107  0.70032763  1 0.080982
  C  C252  1  0.35180413  0.73639758  0.86799976  1 -0.075086
  C  C253  1  0.34120705  0.57745258  0.71302406  1 -0.177605
  C  C254  1  0.29771543  0.45117693  0.64785145  1 -0.165573
  C  C255  1  0.38686285  0.78041733  0.27051140  1 -0.141987
  C  C256  1  0.14935433  0.86177789  0.10941703  1 -0.062708
  C  C257  1  0.39308207  0.59565456  0.41974294  1 -0.111529
  C  C258  1  0.40080294  0.69746025  0.19643837  1 -0.091814
  C  C259  1  0.36990976  0.66820407  0.38437731  1 0.044612
  C  C260  1  0.20325763  0.81352421  0.21194752  1 -0.137779
  C  C261  1  0.41355748  0.15097475  0.83846349  1 -0.087924
  C  C262  1  0.45919228  0.76551719  0.74255879  1 -0.142557
  C  C263  1  0.40794559  0.67655916  0.60787939  1 -0.184799
  C  C264  1  0.16282613  0.64670549  0.62506647  1 -0.16596
  C  C265  1  0.12737225  0.27263868  0.65484261  1 -0.145444
  C  C266  1  0.21365678  0.84678188  0.13958656  1 -0.081682
  C  C267  1  0.29876731  0.37560392  0.68512174  1 -0.114535
  C  C268  1  0.12921409  0.79259278  0.25541071  1 0.083298
  C  C269  1  0.35156192  0.61207684  0.75216339  1 -0.112838
  C  C270  1  0.21406880  0.79700680  0.70179669  1 -0.138793
  C  C271  1  0.46691087  0.79886004  0.78379550  1 -0.084019
  C  C272  1  0.15923243  0.77033830  0.36883906  1 -0.113875
  C  C273  1  0.11031714  0.28524461  0.76178770  1 -0.137246
  C  C274  1  0.38413925  0.66356874  0.26915236  1 -0.140073
  C  C275  1  0.22507280  0.82616055  0.74534722  1 -0.073473
  C  C276  1  0.34487285  0.70254216  0.82714942  1 -0.139247
  C  C277  1  0.10332936  0.66641953  0.58881042  1 0.170995
  C  C278  1  0.06524950  0.80930597  0.22460527  1 -0.139114
  C  C279  1  0.13319024  0.19738949  0.69188829  1 -0.088022
  C  C280  1  0.05895067  0.65064196  0.44111937  1 -0.180019
  C  C281  1  0.12758654  0.74548399  0.65956485  1 0.057228
  C  C282  1  0.15013779  0.73048713  0.44063160  1 -0.172718
  C  C283  1  0.06441203  0.43836926  0.68684106  1 -0.115302
  C  C284  1  0.05944249  0.51370637  0.65297910  1 -0.178673
  C  C285  1  0.17504397  0.68620122  0.65942379  1 -0.118276
  C  C286  1  0.09524903  0.55215384  0.58185236  1 0.185505
  C  C287  1  0.06780258  0.69142888  0.36933236  1 -0.110596
  C  C288  1  0.08639078  0.82940535  0.78656285  1 -0.079247
  C  C289  1  0.07547875  0.80152247  0.74205192  1 -0.147605
  C  C290  1  0.13816238  0.43651232  0.57994577  1 -0.110145
  C  C291  1  0.13386994  0.51213619  0.54538821  1 -0.18295
  C  C292  1  0.05592633  0.72579997  0.58796700  1 -0.167559
  C  C293  1  0.06786954  0.76454393  0.62324697  1 -0.122861
  N  N294  1  0.42177573  0.08411033  0.05969987  1 -0.228115
  N  N295  1  0.02585860  0.04574308  0.08183324  1 -0.222247
  N  N296  1  0.64011789  0.42952603  0.39725132  1 -0.153881
  N  N297  1  0.90663277  0.37128202  0.44966435  1 -0.159276
  N  N298  1  0.57822427  0.91588967  0.94030013  1 -0.228115
  N  N299  1  0.97414140  0.95425692  0.91816676  1 -0.222247
  N  N300  1  0.35988211  0.57047397  0.60274868  1 -0.153881
  N  N301  1  0.09336723  0.62871798  0.55033565  1 -0.159276
  O  O302  1  0.75852807  0.11973372  0.16177818  1 -0.54481
  O  O303  1  0.90264376  0.09048937  0.99099365  1 -0.545079
  O  O304  1  0.57751539  0.00197518  0.09701008  1 -0.551403
  O  O305  1  0.77239582  0.10060499  0.00456062  1 -0.562714
  O  O306  1  0.66637459  0.01008798  0.15195732  1 -0.568586
  O  O307  1  0.64108774  0.17485781  0.06443146  1 -0.582287
  O  O308  1  0.87363872  0.94246272  0.12949712  1 -0.577485
  O  O309  1  0.51772705  0.14759591  0.11955070  1 -0.523868
  O  O310  1  0.58405717  0.12168946  0.94965807  1 -0.575486
  O  O311  1  0.88784113  0.12381851  0.11950931  1 -0.564005
  O  O312  1  0.88837659  0.95517560  0.22250863  1 -0.548139
  O  O313  1  0.53477187  0.22644693  0.95103217  1 -0.545227
  O  O314  1  0.24147193  0.88026628  0.83822182  1 -0.54481
  O  O315  1  0.09735624  0.90951063  0.00900635  1 -0.545079
  O  O316  1  0.42248461  0.99802482  0.90298992  1 -0.551403
  O  O317  1  0.22760418  0.89939501  0.99543938  1 -0.562714
  O  O318  1  0.33362541  0.98991202  0.84804268  1 -0.568586
  O  O319  1  0.35891226  0.82514219  0.93556854  1 -0.582287
  O  O320  1  0.12636128  0.05753728  0.87050288  1 -0.577485
  O  O321  1  0.48227295  0.85240409  0.88044930  1 -0.523868
  O  O322  1  0.41594283  0.87831054  0.05034193  1 -0.575486
  O  O323  1  0.11215887  0.87618149  0.88049069  1 -0.564005
  O  O324  1  0.11162341  0.04482440  0.77749137  1 -0.548139
  O  O325  1  0.46522813  0.77355307  0.04896783  1 -0.545227
