# generated using pymatgen
data_Ag3H24(C3N2)4
_symmetry_space_group_name_H-M   'P 1'
_cell_length_a   11.65132600
_cell_length_b   12.17056300
_cell_length_c   12.63136621
_cell_angle_alpha   118.80032568
_cell_angle_beta   90.00000000
_cell_angle_gamma   90.00000000
_symmetry_Int_Tables_number   1
_chemical_formula_structural   Ag3H24(C3N2)4
_chemical_formula_sum   'Ag6 H48 C24 N16'
_cell_volume   1569.60767741
_cell_formula_units_Z   2
loop_
 _symmetry_equiv_pos_site_id
 _symmetry_equiv_pos_as_xyz
  1  'x, y, z'
loop_
 _atom_site_type_symbol
 _atom_site_label
 _atom_site_symmetry_multiplicity
 _atom_site_fract_x
 _atom_site_fract_y
 _atom_site_fract_z
 _atom_site_occupancy
 _atom_site_charge
  Ag  Ag0  1  0.55032613  0.74337767  0.96795673  1 -0.182413
  Ag  Ag1  1  0.01832626  0.69882420  0.34910359  1 -0.182414
  Ag  Ag2  1  0.94540288  0.48900473  0.16699115  1 -0.182927
  Ag  Ag3  1  0.53244443  0.64295913  0.49803569  1 -0.182926
  Ag  Ag4  1  0.87275255  0.27971457  0.98008906  1 -0.164305
  Ag  Ag5  1  0.33989656  0.83010854  0.00433489  1 -0.1643
  H  H6  1  0.82132419  0.09153791  0.56944561  1 0.072957
  H  H7  1  0.77294306  0.95926916  0.43249750  1 0.059057
  H  H8  1  0.58708828  0.87219009  0.42647913  1 0.058967
  H  H9  1  0.49718045  0.93932078  0.55807045  1 0.062069
  H  H10  1  0.56402106  0.11578444  0.74127871  1 0.044094
  H  H11  1  0.70295637  0.18059054  0.74587932  1 0.059153
  H  H12  1  0.67344093  0.83081743  0.72959174  1 0.06756
  H  H13  1  0.54821776  0.91707413  0.73240931  1 0.06787
  H  H14  1  0.86132817  0.91770223  0.73260802  1 0.065741
  H  H15  1  0.87145349  0.06826894  0.74112085  1 0.068793
  H  H16  1  0.79612177  0.74070791  0.55097628  1 0.072349
  H  H17  1  0.75939529  0.75627683  0.42193925  1 0.049211
  H  H18  1  0.31598680  0.94079400  0.42972372  1 0.072957
  H  H19  1  0.20609625  0.04470950  0.52482962  1 0.059058
  H  H20  1  0.01911714  0.03936811  0.44292245  1 0.058967
  H  H21  1  0.98914287  0.92938122  0.28862533  1 0.062069
  H  H22  1  0.13529244  0.78983332  0.16395269  1 0.044094
  H  H23  1  0.27520693  0.79430673  0.22356587  1 0.059153
  H  H24  1  0.16591807  0.09231754  0.16831987  1 0.067559
  H  H25  1  0.07311152  0.96112159  0.12990896  1 0.06787
  H  H26  1  0.35358591  0.09823211  0.25082829  1 0.065741
  H  H27  1  0.40111888  0.97230717  0.27410807  1 0.068793
  H  H28  1  0.20525895  0.23704045  0.37503861  1 0.072349
  H  H29  1  0.14207701  0.21548201  0.49250102  1 0.049211
  H  H30  1  0.35581089  0.48311323  0.56863502  1 0.073194
  H  H31  1  0.27485076  0.49276342  0.45238538  1 0.05891
  H  H32  1  0.08457746  0.58198636  0.49476329  1 0.058723
  H  H33  1  0.02613198  0.63682268  0.64285516  1 0.062057
  H  H34  1  0.13487335  0.62229903  0.79692787  1 0.044458
  H  H35  1  0.27717703  0.55878206  0.76570554  1 0.059288
  H  H36  1  0.21336793  0.90830601  0.78737854  1 0.067139
  H  H37  1  0.09828737  0.82375323  0.80878342  1 0.068075
  H  H38  1  0.40198602  0.82192263  0.74605962  1 0.064394
  H  H39  1  0.43087887  0.67507727  0.73945583  1 0.067171
  H  H40  1  0.29384591  0.83349894  0.58876793  1 0.072677
  H  H41  1  0.23732118  0.69374861  0.46421575  1 0.049488
  H  H42  1  0.78968177  0.52263673  0.45434917  1 0.073195
  H  H43  1  0.71681252  0.49181376  0.56320216  1 0.05891
  H  H44  1  0.53192244  0.38710791  0.51250143  1 0.058723
  H  H45  1  0.46672092  0.34587526  0.36941061  1 0.062057
  H  H46  1  0.56553398  0.39215034  0.22544841  1 0.044458
  H  H47  1  0.70396224  0.46635976  0.26235031  1 0.059288
  H  H48  1  0.66964203  0.09695215  0.19540734  1 0.067139
  H  H49  1  0.54644701  0.17985909  0.18755490  1 0.068075
  H  H50  1  0.85428584  0.19900359  0.24669011  1 0.064394
  H  H51  1  0.86709935  0.35691079  0.27418100  1 0.067171
  H  H52  1  0.75637613  0.15345960  0.38741815  1 0.072677
  H  H53  1  0.69628646  0.27667648  0.52311485  1 0.049488
  C  C54  1  0.77155367  0.00396751  0.53179451  1 0.021001
  C  C55  1  0.58643621  0.91831442  0.52581239  1 0.013468
  C  C56  1  0.65275737  0.09320386  0.70778865  1 0.011628
  C  C57  1  0.63720114  0.89493644  0.69982018  1 0.019065
  C  C58  1  0.82191248  0.98030641  0.70281464  1 0.012611
  C  C59  1  0.75774750  0.80376805  0.52123704  1 0.01483
  C  C60  1  0.24140173  0.99784136  0.43267246  1 0.021
  C  C61  1  0.05502606  0.99169380  0.35111734  1 0.013468
  C  C62  1  0.20098757  0.85174832  0.22704625  1 0.011628
  C  C63  1  0.13824448  0.02223676  0.19444545  1 0.019064
  C  C64  1  0.32613369  0.02880286  0.27777332  1 0.012611
  C  C65  1  0.17814602  0.16649996  0.40076137  1 0.01483
  C  C66  1  0.29330387  0.53902029  0.54974641  1 0.020658
  C  C67  1  0.10540729  0.62728797  0.59183115  1 0.013682
  C  C68  1  0.21390510  0.61358770  0.74594100  1 0.010826
  C  C69  1  0.17776301  0.81437093  0.75822697  1 0.019307
  C  C70  1  0.36708806  0.72793043  0.71765044  1 0.016945
  C  C71  1  0.25752292  0.74014092  0.56142528  1 0.014844
  C  C72  1  0.73390365  0.45649574  0.46639018  1 0.020658
  C  C73  1  0.54854290  0.35348174  0.41591378  1 0.013681
  C  C74  1  0.64710429  0.39962197  0.27235349  1 0.010826
  C  C75  1  0.62796074  0.18933925  0.23540716  1 0.019307
  C  C76  1  0.81098454  0.29040839  0.28564493  1 0.016946
  C  C77  1  0.71356182  0.24520904  0.42703693  1 0.014844
  N  N78  1  0.65177973  0.03482418  0.57444160  1 -0.141879
  N  N79  1  0.70350159  0.00991231  0.74949384  1 -0.134222
  N  N80  1  0.63473380  0.82796202  0.56363609  1 -0.147391
  N  N81  1  0.82495033  0.91896723  0.56965544  1 -0.152444
  N  N82  1  0.15324522  0.91437746  0.34928300  1 -0.141879
  N  N83  1  0.23972636  0.94361086  0.18742151  1 -0.134223
  N  N84  1  0.08856916  0.08649986  0.31595682  1 -0.147391
  N  N85  1  0.27961512  0.09352085  0.40048764  1 -0.152444
  N  N86  1  0.18778240  0.54985842  0.61615861  1 -0.140896
  N  N87  1  0.26197523  0.74121571  0.78743343  1 -0.135511
  N  N88  1  0.15194509  0.75345951  0.62881796  1 -0.147209
  N  N89  1  0.34627122  0.66449767  0.58471800  1 -0.153065
  N  N90  1  0.62082274  0.45023900  0.40523500  1 -0.140896
  N  N91  1  0.70263557  0.27786191  0.22065389  1 -0.13551
  N  N92  1  0.60320780  0.23102187  0.36414364  1 -0.147209
  N  N93  1  0.79051867  0.33510113  0.41574268  1 -0.153064
