# generated using pymatgen
data_Cu3H13C12N9O7
_symmetry_space_group_name_H-M   'P 1'
_cell_length_a   21.47791835
_cell_length_b   21.47791835
_cell_length_c   21.47791835
_cell_angle_alpha   90.00000000
_cell_angle_beta   90.00000000
_cell_angle_gamma   90.00000000
_symmetry_Int_Tables_number   1
_chemical_formula_structural   Cu3H13C12N9O7
_chemical_formula_sum   'Cu24 H104 C96 N72 O56'
_cell_volume   9907.78471123
_cell_formula_units_Z   8
loop_
 _symmetry_equiv_pos_site_id
 _symmetry_equiv_pos_as_xyz
  1  'x, y, z'
loop_
 _atom_site_type_symbol
 _atom_site_label
 _atom_site_symmetry_multiplicity
 _atom_site_fract_x
 _atom_site_fract_y
 _atom_site_fract_z
 _atom_site_occupancy
 _atom_site_charge
  Cu  Cu0  1  0.19691458  0.31021252  0.19691458  1 0.539559
  Cu  Cu1  1  0.69691458  0.81021252  0.69691458  1 0.539559
  Cu  Cu2  1  0.80308542  0.68978748  0.19691458  1 0.539559
  Cu  Cu3  1  0.30308542  0.18978748  0.69691458  1 0.539559
  Cu  Cu4  1  0.80308542  0.31021252  0.80308542  1 0.539559
  Cu  Cu5  1  0.30308542  0.81021252  0.30308542  1 0.539559
  Cu  Cu6  1  0.19691458  0.68978748  0.80308542  1 0.539559
  Cu  Cu7  1  0.69691458  0.18978748  0.30308542  1 0.539559
  Cu  Cu8  1  0.19691458  0.19691458  0.31021252  1 0.539559
  Cu  Cu9  1  0.69691458  0.69691458  0.81021252  1 0.539559
  Cu  Cu10  1  0.19691458  0.80308542  0.68978748  1 0.539559
  Cu  Cu11  1  0.69691458  0.30308542  0.18978748  1 0.539559
  Cu  Cu12  1  0.80308542  0.80308542  0.31021252  1 0.539559
  Cu  Cu13  1  0.30308542  0.30308542  0.81021252  1 0.539559
  Cu  Cu14  1  0.80308542  0.19691458  0.68978748  1 0.539559
  Cu  Cu15  1  0.30308542  0.69691458  0.18978748  1 0.539559
  Cu  Cu16  1  0.31021252  0.19691458  0.19691458  1 0.539559
  Cu  Cu17  1  0.81021252  0.69691458  0.69691458  1 0.539559
  Cu  Cu18  1  0.68978748  0.19691458  0.80308542  1 0.539559
  Cu  Cu19  1  0.18978748  0.69691458  0.30308542  1 0.539559
  Cu  Cu20  1  0.31021252  0.80308542  0.80308542  1 0.539559
  Cu  Cu21  1  0.81021252  0.30308542  0.30308542  1 0.539559
  Cu  Cu22  1  0.68978748  0.80308542  0.19691458  1 0.539559
  Cu  Cu23  1  0.18978748  0.30308542  0.69691458  1 0.539559
  H  H24  1  0.07188068  0.38157454  0.24229847  1 0.123769
  H  H25  1  0.00147508  0.40176744  0.34359534  1 0.11733
  H  H26  1  0.57188068  0.88157454  0.74229847  1 0.123769
  H  H27  1  0.50147508  0.90176744  0.84359534  1 0.11733
  H  H28  1  0.92811932  0.61842546  0.24229847  1 0.123769
  H  H29  1  -0.00147508  0.59823256  0.34359534  1 0.117331
  H  H30  1  0.42811932  0.11842546  0.74229847  1 0.123769
  H  H31  1  0.49852492  0.09823256  0.84359534  1 0.117331
  H  H32  1  0.92811932  0.38157454  0.75770153  1 0.123769
  H  H33  1  -0.00147508  0.40176744  0.65640466  1 0.11733
  H  H34  1  0.42811932  0.88157454  0.25770153  1 0.123769
  H  H35  1  0.49852492  0.90176744  0.15640466  1 0.11733
  H  H36  1  0.07188068  0.61842546  0.75770153  1 0.123769
  H  H37  1  0.00147508  0.59823256  0.65640466  1 0.117331
  H  H38  1  0.57188068  0.11842546  0.25770153  1 0.123769
  H  H39  1  0.50147508  0.09823256  0.15640466  1 0.117331
  H  H40  1  0.24229847  0.07188068  0.38157454  1 0.123769
  H  H41  1  0.34359534  0.00147508  0.40176744  1 0.11733
  H  H42  1  0.74229847  0.57188068  0.88157454  1 0.123769
  H  H43  1  0.84359534  0.50147508  0.90176744  1 0.11733
  H  H44  1  0.24229847  0.92811932  0.61842546  1 0.123769
  H  H45  1  0.34359534  -0.00147508  0.59823256  1 0.117331
  H  H46  1  0.74229847  0.42811932  0.11842546  1 0.123769
  H  H47  1  0.84359534  0.49852492  0.09823256  1 0.117331
  H  H48  1  0.75770153  0.92811932  0.38157454  1 0.123769
  H  H49  1  0.65640466  -0.00147508  0.40176744  1 0.11733
  H  H50  1  0.25770153  0.42811932  0.88157454  1 0.123769
  H  H51  1  0.15640466  0.49852492  0.90176744  1 0.11733
  H  H52  1  0.75770153  0.07188068  0.61842546  1 0.123769
  H  H53  1  0.65640466  0.00147508  0.59823256  1 0.117331
  H  H54  1  0.25770153  0.57188068  0.11842546  1 0.123769
  H  H55  1  0.15640466  0.50147508  0.09823256  1 0.117331
  H  H56  1  0.38157454  0.24229847  0.07188068  1 0.123769
  H  H57  1  0.40176744  0.34359534  0.00147508  1 0.11733
  H  H58  1  0.88157454  0.74229847  0.57188068  1 0.123769
  H  H59  1  0.90176744  0.84359534  0.50147508  1 0.11733
  H  H60  1  0.61842546  0.24229847  0.92811932  1 0.123769
  H  H61  1  0.59823256  0.34359534  -0.00147508  1 0.117331
  H  H62  1  0.11842546  0.74229847  0.42811932  1 0.123769
  H  H63  1  0.09823256  0.84359534  0.49852492  1 0.117331
  H  H64  1  0.38157454  0.75770153  0.92811932  1 0.123769
  H  H65  1  0.40176744  0.65640466  -0.00147508  1 0.11733
  H  H66  1  0.88157454  0.25770153  0.42811932  1 0.123769
  H  H67  1  0.90176744  0.15640466  0.49852492  1 0.11733
  H  H68  1  0.61842546  0.75770153  0.07188068  1 0.123769
  H  H69  1  0.59823256  0.65640466  0.00147508  1 0.117331
  H  H70  1  0.11842546  0.25770153  0.57188068  1 0.123769
  H  H71  1  0.09823256  0.15640466  0.50147508  1 0.117331
  H  H72  1  0.38157454  0.07188068  0.24229847  1 0.12377
  H  H73  1  0.40176744  0.00147508  0.34359534  1 0.117332
  H  H74  1  0.88157454  0.57188068  0.74229847  1 0.12377
  H  H75  1  0.90176744  0.50147508  0.84359534  1 0.117332
  H  H76  1  0.61842546  0.92811932  0.24229847  1 0.12377
  H  H77  1  0.59823256  -0.00147508  0.34359534  1 0.117333
  H  H78  1  0.11842546  0.42811932  0.74229847  1 0.12377
  H  H79  1  0.09823256  0.49852492  0.84359534  1 0.117333
  H  H80  1  0.38157454  0.92811932  0.75770153  1 0.12377
  H  H81  1  0.40176744  -0.00147508  0.65640466  1 0.117332
  H  H82  1  0.88157454  0.42811932  0.25770153  1 0.12377
  H  H83  1  0.90176744  0.49852492  0.15640466  1 0.117332
  H  H84  1  0.61842546  0.07188068  0.75770153  1 0.12377
  H  H85  1  0.59823256  0.00147508  0.65640466  1 0.117333
  H  H86  1  0.11842546  0.57188068  0.25770153  1 0.12377
  H  H87  1  0.09823256  0.50147508  0.15640466  1 0.117333
  H  H88  1  0.07188068  0.24229847  0.38157454  1 0.12377
  H  H89  1  0.00147508  0.34359534  0.40176744  1 0.117332
  H  H90  1  0.57188068  0.74229847  0.88157454  1 0.12377
  H  H91  1  0.50147508  0.84359534  0.90176744  1 0.117332
  H  H92  1  0.92811932  0.24229847  0.61842546  1 0.12377
  H  H93  1  -0.00147508  0.34359534  0.59823256  1 0.117333
  H  H94  1  0.42811932  0.74229847  0.11842546  1 0.12377
  H  H95  1  0.49852492  0.84359534  0.09823256  1 0.117333
  H  H96  1  0.92811932  0.75770153  0.38157454  1 0.12377
  H  H97  1  -0.00147508  0.65640466  0.40176744  1 0.117332
  H  H98  1  0.42811932  0.25770153  0.88157454  1 0.12377
  H  H99  1  0.49852492  0.15640466  0.90176744  1 0.117332
  H  H100  1  0.07188068  0.75770153  0.61842546  1 0.12377
  H  H101  1  0.00147508  0.65640466  0.59823256  1 0.117333
  H  H102  1  0.57188068  0.25770153  0.11842546  1 0.12377
  H  H103  1  0.50147508  0.15640466  0.09823256  1 0.117333
  H  H104  1  0.24229847  0.38157454  0.07188068  1 0.12377
  H  H105  1  0.34359534  0.40176744  0.00147508  1 0.117332
  H  H106  1  0.74229847  0.88157454  0.57188068  1 0.12377
  H  H107  1  0.84359534  0.90176744  0.50147508  1 0.117332
  H  H108  1  0.24229847  0.61842546  0.92811932  1 0.12377
  H  H109  1  0.34359534  0.59823256  -0.00147508  1 0.117333
  H  H110  1  0.74229847  0.11842546  0.42811932  1 0.12377
  H  H111  1  0.84359534  0.09823256  0.49852492  1 0.117333
  H  H112  1  0.75770153  0.38157454  0.92811932  1 0.12377
  H  H113  1  0.65640466  0.40176744  -0.00147508  1 0.117332
  H  H114  1  0.25770153  0.88157454  0.42811932  1 0.12377
  H  H115  1  0.15640466  0.90176744  0.49852492  1 0.117332
  H  H116  1  0.75770153  0.61842546  0.07188068  1 0.12377
  H  H117  1  0.65640466  0.59823256  0.00147508  1 0.117333
  H  H118  1  0.25770153  0.11842546  0.57188068  1 0.12377
  H  H119  1  0.15640466  0.09823256  0.50147508  1 0.117333
  H  H120  1  0.28040160  0.28040160  0.28040160  1 0.373379
  H  H121  1  0.78040160  0.78040160  0.78040160  1 0.373379
  H  H122  1  0.71959840  0.71959840  0.28040160  1 0.373379
  H  H123  1  0.21959840  0.21959840  0.78040160  1 0.373379
  H  H124  1  0.71959840  0.28040160  0.71959840  1 0.373379
  H  H125  1  0.21959840  0.78040160  0.21959840  1 0.373379
  H  H126  1  0.28040160  0.71959840  0.71959840  1 0.373379
  H  H127  1  0.78040160  0.21959840  0.21959840  1 0.373379
  C  C128  1  0.08379172  0.34104120  0.26966935  1 0.107227
  C  C129  1  0.58379172  0.84104120  0.76966935  1 0.107227
  C  C130  1  0.91620828  0.65895880  0.26966935  1 0.107227
  C  C131  1  0.41620828  0.15895880  0.76966935  1 0.107227
  C  C132  1  0.91620828  0.34104120  0.73033065  1 0.107227
  C  C133  1  0.41620828  0.84104120  0.23033065  1 0.107227
  C  C134  1  0.08379172  0.65895880  0.73033065  1 0.107227
  C  C135  1  0.58379172  0.15895880  0.23033065  1 0.107227
  C  C136  1  0.26966935  0.08379172  0.34104120  1 0.107227
  C  C137  1  0.76966935  0.58379172  0.84104120  1 0.107227
  C  C138  1  0.26966935  0.91620828  0.65895880  1 0.107227
  C  C139  1  0.76966935  0.41620828  0.15895880  1 0.107227
  C  C140  1  0.73033065  0.91620828  0.34104120  1 0.107227
  C  C141  1  0.23033065  0.41620828  0.84104120  1 0.107227
  C  C142  1  0.73033065  0.08379172  0.65895880  1 0.107227
  C  C143  1  0.23033065  0.58379172  0.15895880  1 0.107227
  C  C144  1  0.34104120  0.26966935  0.08379172  1 0.107227
  C  C145  1  0.84104120  0.76966935  0.58379172  1 0.107227
  C  C146  1  0.65895880  0.26966935  0.91620828  1 0.107227
  C  C147  1  0.15895880  0.76966935  0.41620828  1 0.107227
  C  C148  1  0.34104120  0.73033065  0.91620828  1 0.107227
  C  C149  1  0.84104120  0.23033065  0.41620828  1 0.107227
  C  C150  1  0.65895880  0.73033065  0.08379172  1 0.107227
  C  C151  1  0.15895880  0.23033065  0.58379172  1 0.107227
  C  C152  1  0.34104120  0.08379172  0.26966935  1 0.107225
  C  C153  1  0.84104120  0.58379172  0.76966935  1 0.107225
  C  C154  1  0.65895880  0.91620828  0.26966935  1 0.107225
  C  C155  1  0.15895880  0.41620828  0.76966935  1 0.107225
  C  C156  1  0.34104120  0.91620828  0.73033065  1 0.107225
  C  C157  1  0.84104120  0.41620828  0.23033065  1 0.107225
  C  C158  1  0.65895880  0.08379172  0.73033065  1 0.107225
  C  C159  1  0.15895880  0.58379172  0.23033065  1 0.107225
  C  C160  1  0.08379172  0.26966935  0.34104120  1 0.107225
  C  C161  1  0.58379172  0.76966935  0.84104120  1 0.107225
  C  C162  1  0.91620828  0.26966935  0.65895880  1 0.107225
  C  C163  1  0.41620828  0.76966935  0.15895880  1 0.107225
  C  C164  1  0.91620828  0.73033065  0.34104120  1 0.107225
  C  C165  1  0.41620828  0.23033065  0.84104120  1 0.107225
  C  C166  1  0.08379172  0.73033065  0.65895880  1 0.107225
  C  C167  1  0.58379172  0.23033065  0.15895880  1 0.107225
  C  C168  1  0.26966935  0.34104120  0.08379172  1 0.107225
  C  C169  1  0.76966935  0.84104120  0.58379172  1 0.107225
  C  C170  1  0.26966935  0.65895880  0.91620828  1 0.107225
  C  C171  1  0.76966935  0.15895880  0.41620828  1 0.107225
  C  C172  1  0.73033065  0.34104120  0.91620828  1 0.107225
  C  C173  1  0.23033065  0.84104120  0.41620828  1 0.107225
  C  C174  1  0.73033065  0.65895880  0.08379172  1 0.107225
  C  C175  1  0.23033065  0.15895880  0.58379172  1 0.107225
  C  C176  1  0.00038030  0.35124377  0.35124377  1 -0.204765
  C  C177  1  0.93895088  0.32396477  0.32396477  1 0.554571
  C  C178  1  0.50038030  0.85124377  0.85124377  1 -0.204765
  C  C179  1  0.43895088  0.82396477  0.82396477  1 0.554571
  C  C180  1  -0.00038030  0.64875623  0.35124377  1 -0.204766
  C  C181  1  0.06104912  0.67603523  0.32396477  1 0.554571
  C  C182  1  0.49961970  0.14875623  0.85124377  1 -0.204766
  C  C183  1  0.56104912  0.17603523  0.82396477  1 0.554571
  C  C184  1  -0.00038030  0.35124377  0.64875623  1 -0.204766
  C  C185  1  0.06104912  0.32396477  0.67603523  1 0.554571
  C  C186  1  0.49961970  0.85124377  0.14875623  1 -0.204766
  C  C187  1  0.56104912  0.82396477  0.17603523  1 0.554571
  C  C188  1  0.00038030  0.64875623  0.64875623  1 -0.204766
  C  C189  1  0.93895088  0.67603523  0.67603523  1 0.554571
  C  C190  1  0.50038030  0.14875623  0.14875623  1 -0.204766
  C  C191  1  0.43895088  0.17603523  0.17603523  1 0.554571
  C  C192  1  0.35124377  0.00038030  0.35124377  1 -0.204765
  C  C193  1  0.32396477  0.93895088  0.32396477  1 0.554571
  C  C194  1  0.85124377  0.50038030  0.85124377  1 -0.204765
  C  C195  1  0.82396477  0.43895088  0.82396477  1 0.554571
  C  C196  1  0.35124377  -0.00038030  0.64875623  1 -0.204766
  C  C197  1  0.32396477  0.06104912  0.67603523  1 0.554571
  C  C198  1  0.85124377  0.49961970  0.14875623  1 -0.204766
  C  C199  1  0.82396477  0.56104912  0.17603523  1 0.554571
  C  C200  1  0.64875623  -0.00038030  0.35124377  1 -0.204766
  C  C201  1  0.67603523  0.06104912  0.32396477  1 0.554571
  C  C202  1  0.14875623  0.49961970  0.85124377  1 -0.204766
  C  C203  1  0.17603523  0.56104912  0.82396477  1 0.554571
  C  C204  1  0.64875623  0.00038030  0.64875623  1 -0.204766
  C  C205  1  0.67603523  0.93895088  0.67603523  1 0.554571
  C  C206  1  0.14875623  0.50038030  0.14875623  1 -0.204766
  C  C207  1  0.17603523  0.43895088  0.17603523  1 0.554571
  C  C208  1  0.35124377  0.35124377  0.00038030  1 -0.204765
  C  C209  1  0.32396477  0.32396477  0.93895088  1 0.554571
  C  C210  1  0.85124377  0.85124377  0.50038030  1 -0.204765
  C  C211  1  0.82396477  0.82396477  0.43895088  1 0.554571
  C  C212  1  0.64875623  0.35124377  -0.00038030  1 -0.204766
  C  C213  1  0.67603523  0.32396477  0.06104912  1 0.554571
  C  C214  1  0.14875623  0.85124377  0.49961970  1 -0.204766
  C  C215  1  0.17603523  0.82396477  0.56104912  1 0.554571
  C  C216  1  0.35124377  0.64875623  -0.00038030  1 -0.204766
  C  C217  1  0.32396477  0.67603523  0.06104912  1 0.554571
  C  C218  1  0.85124377  0.14875623  0.49961970  1 -0.204766
  C  C219  1  0.82396477  0.17603523  0.56104912  1 0.554571
  C  C220  1  0.64875623  0.64875623  0.00038030  1 -0.204766
  C  C221  1  0.67603523  0.67603523  0.93895088  1 0.554571
  C  C222  1  0.14875623  0.14875623  0.50038030  1 -0.204766
  C  C223  1  0.17603523  0.17603523  0.43895088  1 0.554571
  N  N224  1  0.12824364  0.30091338  0.25551924  1 -0.157365
  N  N225  1  0.62824364  0.80091338  0.75551924  1 -0.157365
  N  N226  1  0.87175636  0.69908662  0.25551924  1 -0.157365
  N  N227  1  0.37175636  0.19908662  0.75551924  1 -0.157365
  N  N228  1  0.87175636  0.30091338  0.74448076  1 -0.157365
  N  N229  1  0.37175636  0.80091338  0.24448076  1 -0.157365
  N  N230  1  0.12824364  0.69908662  0.74448076  1 -0.157365
  N  N231  1  0.62824364  0.19908662  0.24448076  1 -0.157365
  N  N232  1  0.25551924  0.12824364  0.30091338  1 -0.157365
  N  N233  1  0.75551924  0.62824364  0.80091338  1 -0.157365
  N  N234  1  0.25551924  0.87175636  0.69908662  1 -0.157365
  N  N235  1  0.75551924  0.37175636  0.19908662  1 -0.157365
  N  N236  1  0.74448076  0.87175636  0.30091338  1 -0.157365
  N  N237  1  0.24448076  0.37175636  0.80091338  1 -0.157365
  N  N238  1  0.74448076  0.12824364  0.69908662  1 -0.157365
  N  N239  1  0.24448076  0.62824364  0.19908662  1 -0.157365
  N  N240  1  0.30091338  0.25551924  0.12824364  1 -0.157365
  N  N241  1  0.80091338  0.75551924  0.62824364  1 -0.157365
  N  N242  1  0.69908662  0.25551924  0.87175636  1 -0.157365
  N  N243  1  0.19908662  0.75551924  0.37175636  1 -0.157365
  N  N244  1  0.30091338  0.74448076  0.87175636  1 -0.157365
  N  N245  1  0.80091338  0.24448076  0.37175636  1 -0.157365
  N  N246  1  0.69908662  0.74448076  0.12824364  1 -0.157365
  N  N247  1  0.19908662  0.24448076  0.62824364  1 -0.157365
  N  N248  1  0.30091338  0.12824364  0.25551924  1 -0.15735
  N  N249  1  0.80091338  0.62824364  0.75551924  1 -0.15735
  N  N250  1  0.69908662  0.87175636  0.25551924  1 -0.15735
  N  N251  1  0.19908662  0.37175636  0.75551924  1 -0.15735
  N  N252  1  0.30091338  0.87175636  0.74448076  1 -0.15735
  N  N253  1  0.80091338  0.37175636  0.24448076  1 -0.15735
  N  N254  1  0.69908662  0.12824364  0.74448076  1 -0.15735
  N  N255  1  0.19908662  0.62824364  0.24448076  1 -0.15735
  N  N256  1  0.12824364  0.25551924  0.30091338  1 -0.15735
  N  N257  1  0.62824364  0.75551924  0.80091338  1 -0.15735
  N  N258  1  0.87175636  0.25551924  0.69908662  1 -0.15735
  N  N259  1  0.37175636  0.75551924  0.19908662  1 -0.15735
  N  N260  1  0.87175636  0.74448076  0.30091338  1 -0.15735
  N  N261  1  0.37175636  0.24448076  0.80091338  1 -0.15735
  N  N262  1  0.12824364  0.74448076  0.69908662  1 -0.15735
  N  N263  1  0.62824364  0.24448076  0.19908662  1 -0.15735
  N  N264  1  0.25551924  0.30091338  0.12824364  1 -0.15735
  N  N265  1  0.75551924  0.80091338  0.62824364  1 -0.15735
  N  N266  1  0.25551924  0.69908662  0.87175636  1 -0.15735
  N  N267  1  0.75551924  0.19908662  0.37175636  1 -0.15735
  N  N268  1  0.74448076  0.30091338  0.87175636  1 -0.15735
  N  N269  1  0.24448076  0.80091338  0.37175636  1 -0.15735
  N  N270  1  0.74448076  0.69908662  0.12824364  1 -0.15735
  N  N271  1  0.24448076  0.19908662  0.62824364  1 -0.15735
  N  N272  1  0.05562219  0.32364821  0.32364821  1 0.037908
  N  N273  1  0.55562219  0.82364821  0.82364821  1 0.037908
  N  N274  1  0.94437781  0.67635179  0.32364821  1 0.037908
  N  N275  1  0.44437781  0.17635179  0.82364821  1 0.037908
  N  N276  1  0.94437781  0.32364821  0.67635179  1 0.037908
  N  N277  1  0.44437781  0.82364821  0.17635179  1 0.037908
  N  N278  1  0.05562219  0.67635179  0.67635179  1 0.037909
  N  N279  1  0.55562219  0.17635179  0.17635179  1 0.037909
  N  N280  1  0.32364821  0.05562219  0.32364821  1 0.037908
  N  N281  1  0.82364821  0.55562219  0.82364821  1 0.037908
  N  N282  1  0.32364821  0.94437781  0.67635179  1 0.037908
  N  N283  1  0.82364821  0.44437781  0.17635179  1 0.037908
  N  N284  1  0.67635179  0.94437781  0.32364821  1 0.037908
  N  N285  1  0.17635179  0.44437781  0.82364821  1 0.037908
  N  N286  1  0.67635179  0.05562219  0.67635179  1 0.037909
  N  N287  1  0.17635179  0.55562219  0.17635179  1 0.037909
  N  N288  1  0.32364821  0.32364821  0.05562219  1 0.037908
  N  N289  1  0.82364821  0.82364821  0.55562219  1 0.037908
  N  N290  1  0.67635179  0.32364821  0.94437781  1 0.037908
  N  N291  1  0.17635179  0.82364821  0.44437781  1 0.037908
  N  N292  1  0.32364821  0.67635179  0.94437781  1 0.037908
  N  N293  1  0.82364821  0.17635179  0.44437781  1 0.037908
  N  N294  1  0.67635179  0.67635179  0.05562219  1 0.037909
  N  N295  1  0.17635179  0.17635179  0.55562219  1 0.037909
  O  O296  1  0.94187727  0.28303521  0.28303521  1 -0.568163
  O  O297  1  0.89058984  0.34859900  0.34859900  1 -0.595303
  O  O298  1  0.44187727  0.78303521  0.78303521  1 -0.568163
  O  O299  1  0.39058984  0.84859900  0.84859900  1 -0.595303
  O  O300  1  0.05812273  0.71696479  0.28303521  1 -0.568163
  O  O301  1  0.10941016  0.65140100  0.34859900  1 -0.595303
  O  O302  1  0.55812273  0.21696479  0.78303521  1 -0.568163
  O  O303  1  0.60941016  0.15140100  0.84859900  1 -0.595303
  O  O304  1  0.05812273  0.28303521  0.71696479  1 -0.568163
  O  O305  1  0.10941016  0.34859900  0.65140100  1 -0.595303
  O  O306  1  0.55812273  0.78303521  0.21696479  1 -0.568163
  O  O307  1  0.60941016  0.84859900  0.15140100  1 -0.595303
  O  O308  1  0.94187727  0.71696479  0.71696479  1 -0.568163
  O  O309  1  0.89058984  0.65140100  0.65140100  1 -0.595303
  O  O310  1  0.44187727  0.21696479  0.21696479  1 -0.568163
  O  O311  1  0.39058984  0.15140100  0.15140100  1 -0.595303
  O  O312  1  0.28303521  0.94187727  0.28303521  1 -0.568163
  O  O313  1  0.34859900  0.89058984  0.34859900  1 -0.595303
  O  O314  1  0.78303521  0.44187727  0.78303521  1 -0.568163
  O  O315  1  0.84859900  0.39058984  0.84859900  1 -0.595303
  O  O316  1  0.28303521  0.05812273  0.71696479  1 -0.568163
  O  O317  1  0.34859900  0.10941016  0.65140100  1 -0.595303
  O  O318  1  0.78303521  0.55812273  0.21696479  1 -0.568163
  O  O319  1  0.84859900  0.60941016  0.15140100  1 -0.595303
  O  O320  1  0.71696479  0.05812273  0.28303521  1 -0.568163
  O  O321  1  0.65140100  0.10941016  0.34859900  1 -0.595303
  O  O322  1  0.21696479  0.55812273  0.78303521  1 -0.568163
  O  O323  1  0.15140100  0.60941016  0.84859900  1 -0.595303
  O  O324  1  0.71696479  0.94187727  0.71696479  1 -0.568163
  O  O325  1  0.65140100  0.89058984  0.65140100  1 -0.595303
  O  O326  1  0.21696479  0.44187727  0.21696479  1 -0.568163
  O  O327  1  0.15140100  0.39058984  0.15140100  1 -0.595303
  O  O328  1  0.28303521  0.28303521  0.94187727  1 -0.568163
  O  O329  1  0.34859900  0.34859900  0.89058984  1 -0.595303
  O  O330  1  0.78303521  0.78303521  0.44187727  1 -0.568163
  O  O331  1  0.84859900  0.84859900  0.39058984  1 -0.595303
  O  O332  1  0.71696479  0.28303521  0.05812273  1 -0.568163
  O  O333  1  0.65140100  0.34859900  0.10941016  1 -0.595303
  O  O334  1  0.21696479  0.78303521  0.55812273  1 -0.568163
  O  O335  1  0.15140100  0.84859900  0.60941016  1 -0.595303
  O  O336  1  0.28303521  0.71696479  0.05812273  1 -0.568163
  O  O337  1  0.34859900  0.65140100  0.10941016  1 -0.595303
  O  O338  1  0.78303521  0.21696479  0.55812273  1 -0.568163
  O  O339  1  0.84859900  0.15140100  0.60941016  1 -0.595303
  O  O340  1  0.71696479  0.71696479  0.94187727  1 -0.568163
  O  O341  1  0.65140100  0.65140100  0.89058984  1 -0.595303
  O  O342  1  0.21696479  0.21696479  0.44187727  1 -0.568163
  O  O343  1  0.15140100  0.15140100  0.39058984  1 -0.595303
  O  O344  1  0.25415570  0.25415570  0.25415570  1 -0.81062
  O  O345  1  0.75415570  0.75415570  0.75415570  1 -0.81062
  O  O346  1  0.74584430  0.74584430  0.25415570  1 -0.81062
  O  O347  1  0.24584430  0.24584430  0.75415570  1 -0.81062
  O  O348  1  0.74584430  0.25415570  0.74584430  1 -0.81062
  O  O349  1  0.24584430  0.75415570  0.24584430  1 -0.81062
  O  O350  1  0.25415570  0.74584430  0.74584430  1 -0.81062
  O  O351  1  0.75415570  0.24584430  0.24584430  1 -0.81062
