# generated using pymatgen
data_FeC13N8
_symmetry_space_group_name_H-M   'P 1'
_cell_length_a   13.92334717
_cell_length_b   17.24786223
_cell_length_c   6.87231288
_cell_angle_alpha   89.99756688
_cell_angle_beta   90.00077005
_cell_angle_gamma   90.00281603
_symmetry_Int_Tables_number   1
_chemical_formula_structural   FeC13N8
_chemical_formula_sum   'Fe4 C52 N32'
_cell_volume   1650.37200961
_cell_formula_units_Z   4
loop_
 _symmetry_equiv_pos_site_id
 _symmetry_equiv_pos_as_xyz
  1  'x, y, z'
loop_
 _atom_site_type_symbol
 _atom_site_label
 _atom_site_symmetry_multiplicity
 _atom_site_fract_x
 _atom_site_fract_y
 _atom_site_fract_z
 _atom_site_occupancy
 _atom_site_charge
  Fe  Fe0  1  0.24908967  0.75090477  0.43640316  1 0.811292
  Fe  Fe1  1  0.75226202  0.24992668  0.44000321  1 0.812334
  Fe  Fe2  1  0.74918602  0.75106585  0.43902103  1 0.811083
  Fe  Fe3  1  0.25210253  0.25146044  0.43751084  1 0.811937
  C  C4  1  0.10643659  0.76823157  0.10671047  1 0.295649
  C  C5  1  0.60881028  0.26114073  0.10931414  1 0.294268
  C  C6  1  0.89582202  0.23732692  0.10934741  1 0.294245
  C  C7  1  0.39190594  0.73374811  0.10684233  1 0.295774
  C  C8  1  0.89305185  0.76220507  0.76847959  1 0.295737
  C  C9  1  0.39594457  0.26836146  0.76758737  1 0.294511
  C  C10  1  0.10897697  0.23273328  0.76786518  1 0.294353
  C  C11  1  0.60538567  0.73926394  0.76866955  1 0.295331
  C  C12  1  0.89630141  0.23897153  0.76961158  1 0.294209
  C  C13  1  0.39268083  0.73322173  0.76656563  1 0.295553
  C  C14  1  0.10562463  0.76866365  0.76660549  1 0.295747
  C  C15  1  0.60853666  0.26192774  0.76962531  1 0.29438
  C  C16  1  0.10950877  0.23376566  0.10798932  1 0.294513
  C  C17  1  0.60560632  0.73973401  0.10835808  1 0.295761
  C  C18  1  0.89243929  0.76368145  0.10805351  1 0.295426
  C  C19  1  0.39506149  0.26802437  0.10789815  1 0.29444
  C  C20  1  0.05127625  0.77202026  0.93735750  1 -0.082542
  C  C21  1  0.55395565  0.26611791  0.93956009  1 -0.082844
  C  C22  1  0.95080782  0.23355106  0.93948743  1 -0.08277
  C  C23  1  0.44701090  0.73016597  0.93740585  1 -0.0824
  C  C24  1  0.94754784  0.76745321  0.93839150  1 -0.082366
  C  C25  1  0.45020785  0.27119423  0.93847233  1 -0.083035
  C  C26  1  0.05454643  0.22923538  0.93854341  1 -0.08297
  C  C27  1  0.55073880  0.73506175  0.93852894  1 -0.082433
  C  C28  1  0.00404975  0.43331675  0.40549641  1 0.196588
  C  C29  1  0.49434132  0.93077566  0.41310438  1 0.197222
  C  C30  1  0.00336945  0.57359757  0.41646494  1 0.197505
  C  C31  1  0.49500278  0.07045254  0.41310429  1 0.196513
  C  C32  1  0.10294626  0.43426492  0.79470794  1 0.19656
  C  C33  1  0.39164296  0.93443838  0.79600652  1 0.197539
  C  C34  1  0.10228406  0.56656774  0.79820160  1 0.197352
  C  C35  1  0.39231903  0.06688998  0.79652715  1 0.196551
  C  C36  1  0.00201906  0.50193072  0.53353293  1 -0.039843
  C  C37  1  0.58790791  0.00057179  0.64721659  1 -0.039312
  C  C38  1  0.90885598  0.50073061  0.64063353  1 -0.039268
  C  C39  1  0.49534059  0.00060634  0.53718037  1 -0.0397
  C  C40  1  0.85124010  0.50021371  0.79301073  1 -0.039328
  C  C41  1  0.39821157  0.00072685  0.66255792  1 -0.039882
  C  C42  1  0.09805407  0.50092980  0.66247293  1 -0.039737
  C  C43  1  0.64437485  0.00032365  0.80137905  1 -0.039288
  C  C44  1  0.21869479  0.57392479  0.47144789  1 0.274404
  C  C45  1  0.72292040  0.07327808  0.49609243  1 0.275931
  C  C46  1  0.77674424  0.42749519  0.48521733  1 0.275906
  C  C47  1  0.27868364  0.92826215  0.46774711  1 0.274438
  C  C48  1  0.77569999  0.57357535  0.48599021  1 0.274055
  C  C49  1  0.27986079  0.07401129  0.46746795  1 0.275931
  C  C50  1  0.21976226  0.42854796  0.47246606  1 0.275915
  C  C51  1  0.72198355  0.92786042  0.49474847  1 0.273995
  C  C52  1  0.18669369  0.50116193  0.52792268  1 0.030602
  C  C53  1  0.68777079  0.00060493  0.56444786  1 0.03015
  C  C54  1  0.80962033  0.50060311  0.55492311  1 0.03017
  C  C55  1  0.31084708  0.00099683  0.52424259  1 0.030561
  N  N56  1  0.15798467  0.76217173  0.24038040  1 -0.338936
  N  N57  1  0.66072764  0.25686658  0.24306907  1 -0.337542
  N  N58  1  0.84380400  0.24104965  0.24308744  1 -0.337471
  N  N59  1  0.34036221  0.73947655  0.24065499  1 -0.339029
  N  N60  1  0.84158474  0.75678408  0.63409255  1 -0.339027
  N  N61  1  0.34456819  0.26182369  0.63326467  1 -0.337487
  N  N62  1  0.16024745  0.24023587  0.63376576  1 -0.337245
  N  N63  1  0.65700343  0.74382990  0.63425306  1 -0.338759
  N  N64  1  0.84476691  0.24448933  0.63526875  1 -0.337494
  N  N65  1  0.34134356  0.74026401  0.63237508  1 -0.338937
  N  N66  1  0.15698512  0.76163738  0.63245210  1 -0.338994
  N  N67  1  0.66008019  0.25733861  0.63515301  1 -0.337589
  N  N68  1  0.16088257  0.24049084  0.24180404  1 -0.337469
  N  N69  1  0.65754197  0.74375428  0.24213116  1 -0.339
  N  N70  1  0.84039627  0.75989682  0.24172606  1 -0.338835
  N  N71  1  0.34338868  0.26295669  0.24162900  1 -0.337406
  N  N72  1  -0.00130533  0.37698778  0.31313190  1 -0.41207
  N  N73  1  0.49996887  0.87413689  0.32198234  1 -0.412724
  N  N74  1  0.99764016  0.63246635  0.33483187  1 -0.412986
  N  N75  1  0.50176070  0.12702838  0.32203005  1 -0.41202
  N  N76  1  0.11853195  0.38806198  0.91379212  1 -0.412087
  N  N77  1  0.37532517  0.88831015  0.91491489  1 -0.413006
  N  N78  1  0.11514295  0.61214033  0.92013111  1 -0.412832
  N  N79  1  0.37687443  0.11309435  0.91570953  1 -0.412008
  N  N80  1  0.23189642  0.64009258  0.44288903  1 -0.271436
  N  N81  1  0.73906945  0.13788543  0.45728213  1 -0.272733
  N  N82  1  0.76425413  0.36218475  0.44822361  1 -0.272695
  N  N83  1  0.26580969  0.86191262  0.44117494  1 -0.271489
  N  N84  1  0.76187655  0.63871375  0.44899732  1 -0.270984
  N  N85  1  0.26843939  0.14053139  0.44077148  1 -0.272731
  N  N86  1  0.23439336  0.36249663  0.44498532  1 -0.272758
  N  N87  1  0.73654020  0.86307632  0.45523289  1 -0.270933
