# generated using pymatgen
data_CuH11C11NO4
_symmetry_space_group_name_H-M   'P 1'
_cell_length_a   8.53322466
_cell_length_b   13.31527079
_cell_length_c   13.81752127
_cell_angle_alpha   118.64741732
_cell_angle_beta   89.48288761
_cell_angle_gamma   90.05483469
_symmetry_Int_Tables_number   1
_chemical_formula_structural   CuH11C11NO4
_chemical_formula_sum   'Cu4 H44 C44 N4 O16'
_cell_volume   1377.72448049
_cell_formula_units_Z   4
loop_
 _symmetry_equiv_pos_site_id
 _symmetry_equiv_pos_as_xyz
  1  'x, y, z'
loop_
 _atom_site_type_symbol
 _atom_site_label
 _atom_site_symmetry_multiplicity
 _atom_site_fract_x
 _atom_site_fract_y
 _atom_site_fract_z
 _atom_site_occupancy
 _atom_site_charge
  Cu  Cu0  1  0.94855328  0.00018905  0.58795728  1 0.722875
  Cu  Cu1  1  0.05179426  0.99987454  0.41154453  1 0.740015
  Cu  Cu2  1  0.55165248  0.41186268  0.41129673  1 0.744659
  Cu  Cu3  1  0.44855716  0.58779735  0.58840764  1 0.727455
  H  H4  1  0.89457030  0.57819336  0.35289877  1 0.087184
  H  H5  1  0.26496490  0.25839860  0.59634450  1 0.128839
  H  H6  1  0.51648413  0.86873660  0.93628966  1 0.101456
  H  H7  1  0.39406829  0.77364827  0.35294479  1 0.086796
  H  H8  1  0.59221325  0.84209247  0.26175815  1 0.107473
  H  H9  1  0.63981460  0.65272910  0.27729805  1 0.110766
  H  H10  1  0.31255025  0.21032794  0.22038007  1 0.127658
  H  H11  1  0.00751127  0.58402381  0.62635760  1 0.132626
  H  H12  1  0.98295843  0.93250790  0.06415568  1 0.101923
  H  H13  1  0.01191010  0.37291301  0.51884578  1 0.09352
  H  H14  1  0.59760017  0.15495842  0.93844854  1 0.10909
  H  H15  1  0.98810237  0.62709456  0.48115822  1 0.09338
  H  H16  1  0.09626024  0.78412779  0.93944042  1 0.110033
  H  H17  1  0.27570356  0.63724129  0.80094567  1 0.093365
  H  H18  1  0.68746478  0.78966713  0.77961785  1 0.1274
  H  H19  1  0.77714976  0.16311709  0.79924446  1 0.093829
  H  H20  1  0.90374616  0.21586802  0.06055846  1 0.110225
  H  H21  1  0.48785054  0.85301518  0.48097785  1 0.093646
  H  H22  1  0.10544587  0.42179667  0.64710120  1 0.087119
  H  H23  1  0.40239995  0.84504688  0.06155548  1 0.109448
  H  H24  1  0.23500077  0.66236709  0.40365283  1 0.128487
  H  H25  1  0.01705021  0.06749279  0.93584590  1 0.1019
  H  H26  1  0.99248804  0.41597193  0.37362680  1 0.132428
  H  H27  1  0.86245943  0.81536146  0.64835109  1 0.096659
  H  H28  1  0.72429845  0.36274191  0.19904440  1 0.09365
  H  H29  1  0.60593454  0.22634781  0.64704443  1 0.086791
  H  H30  1  0.81221587  0.00991010  0.22075837  1 0.12694
  H  H31  1  0.13753537  0.18463475  0.35164003  1 0.09693
  H  H32  1  0.13965906  0.62506894  0.27735689  1 0.110735
  H  H33  1  0.90716889  0.58033392  0.73761198  1 0.107329
  H  H34  1  0.49050143  0.95610617  0.37208192  1 0.132358
  H  H35  1  0.51215234  0.14695758  0.51901973  1 0.093818
  H  H36  1  0.63749659  0.16625684  0.35139024  1 0.096593
  H  H37  1  0.86033293  0.37492932  0.72266377  1 0.110443
  H  H38  1  0.40777833  0.15793504  0.73828432  1 0.107526
  H  H39  1  0.50948836  0.04387737  0.62791240  1 0.132693
  H  H40  1  0.22284750  0.83688850  0.20074959  1 0.094127
  H  H41  1  0.48352218  0.13126305  0.06371208  1 0.101516
  H  H42  1  0.09278800  0.41965966  0.26238667  1 0.1076
  H  H43  1  0.18780441  0.99008721  0.77924003  1 0.126727
  H  H44  1  0.36022115  0.34728868  0.72268502  1 0.110294
  H  H45  1  0.36250317  0.83373461  0.64859596  1 0.096308
  H  H46  1  0.76501401  0.33763224  0.59633927  1 0.128573
  H  H47  1  0.73504804  0.74158590  0.40364611  1 0.128661
  C  C48  1  0.62058253  0.70629048  0.36637299  1 -0.286474
  C  C49  1  0.75515685  0.08280763  0.80015856  1 0.079599
  C  C50  1  0.96651744  0.00294344  0.04575141  1 -0.116384
  C  C51  1  0.84576752  0.19957608  0.12219965  1 -0.18561
  C  C52  1  0.65520857  0.07716424  0.87703047  1 -0.183134
  C  C53  1  0.29474380  0.12487177  0.21053799  1 -0.172372
  C  C54  1  0.57252093  0.62932648  0.41430962  1 0.626263
  C  C55  1  0.92826783  0.21520999  0.58585312  1 0.625064
  C  C56  1  0.70527206  0.87512854  0.78947496  1 -0.172284
  C  C57  1  0.37941086  0.29372494  0.63362936  1 -0.286347
  C  C58  1  0.23112331  0.46914274  0.40598531  1 0.625743
  C  C59  1  0.27005881  0.06280718  0.59424535  1 0.624652
  C  C60  1  0.07166474  0.78479452  0.41425189  1 0.625665
  C  C61  1  0.46653776  0.04266407  0.04568748  1 -0.115829
  C  C62  1  0.87963001  0.33976553  0.63357050  1 -0.286278
  C  C63  1  0.79475666  0.08535414  0.21049836  1 -0.171312
  C  C64  1  0.76881398  0.53097227  0.59411483  1 0.625875
  C  C65  1  0.42740921  0.37077831  0.58579709  1 0.627008
  C  C66  1  0.24484160  0.91719824  0.19984367  1 0.080101
  C  C67  1  0.07538039  0.46584415  0.35222818  1 -0.289734
  C  C68  1  0.30260215  0.82751014  0.71557441  1 0.109911
  C  C69  1  0.19725831  0.11175191  0.28472883  1 0.110203
  C  C70  1  0.12985041  0.90344345  0.87463358  1 0.139259
  C  C71  1  0.53345432  0.95733503  0.95430692  1 -0.114735
  C  C72  1  0.72988038  0.93717523  0.40586025  1 0.624781
  C  C73  1  0.03347860  0.99704992  0.95424164  1 -0.115445
  C  C74  1  0.87015980  0.09655382  0.12536750  1 0.139763
  C  C75  1  0.15424292  0.80042299  0.87780440  1 -0.185939
  C  C76  1  0.92459910  0.53418669  0.64779193  1 -0.290009
  C  C77  1  0.80274422  0.88824662  0.71527275  1 0.109738
  C  C78  1  0.49168633  0.19470325  0.60837131  1 -0.101831
  C  C79  1  0.42549081  0.11413200  0.64842889  1 -0.290684
  C  C80  1  0.63019917  0.97127867  0.87443398  1 0.138654
  C  C81  1  0.12034215  0.66022328  0.36646838  1 -0.28649
  C  C82  1  0.25415898  0.71814774  0.80118354  1 0.080448
  C  C83  1  0.99127126  0.41409903  0.60818108  1 -0.101335
  C  C84  1  0.50829636  0.80528008  0.39163435  1 -0.102122
  C  C85  1  0.69740315  0.17248967  0.28442055  1 0.110273
  C  C86  1  0.57447197  0.88585554  0.35163195  1 -0.290325
  C  C87  1  0.00872165  0.58590030  0.39183088  1 -0.101791
  C  C88  1  0.36980847  0.02872437  0.12556935  1 0.139295
  C  C89  1  0.74584281  0.28184222  0.19881509  1 0.08079
  C  C90  1  0.34479601  0.92284241  0.12298091  1 -0.182981
  C  C91  1  0.20526482  0.91465085  0.78951012  1 -0.171128
  N  N92  1  0.82982648  0.99036622  0.72085302  1 -0.235333
  N  N93  1  0.67074056  0.26887093  0.27840213  1 -0.241658
  N  N94  1  0.17013548  0.00963130  0.27914262  1 -0.237648
  N  N95  1  0.32922339  0.73112382  0.72158953  1 -0.239279
  O  O96  1  0.09910008  0.83182040  0.35437339  1 -0.537338
  O  O97  1  0.16529776  0.04788783  0.65235932  1 -0.529589
  O  O98  1  0.75456826  0.45343595  0.49443732  1 -0.526716
  O  O99  1  0.40042421  0.47746988  0.64569519  1 -0.532302
  O  O100  1  0.90093223  0.16791842  0.64555321  1 -0.532062
  O  O101  1  0.59957585  0.52267960  0.35426967  1 -0.53709
  O  O102  1  0.98826867  0.16692180  0.48931530  1 -0.526463
  O  O103  1  0.51319655  0.67709029  0.51109401  1 -0.521925
  O  O104  1  0.01164904  0.83332524  0.51082472  1 -0.521691
  O  O105  1  0.74430273  0.95912509  0.50563284  1 -0.521571
  O  O106  1  0.33523231  0.39624293  0.34742096  1 -0.533699
  O  O107  1  0.24567063  0.54665701  0.50567460  1 -0.522043
  O  O108  1  0.25608018  0.04088631  0.49450385  1 -0.525877
  O  O109  1  0.83425357  0.95203967  0.34755132  1 -0.534036
  O  O110  1  0.48672812  0.32285794  0.48901669  1 -0.527362
  O  O111  1  0.66446973  0.60377879  0.65253968  1 -0.528697
