# generated using pymatgen
data_Li2H24C12ClO6
_symmetry_space_group_name_H-M   'P 1'
_cell_length_a   15.76031200
_cell_length_b   17.23458700
_cell_length_c   11.16320649
_cell_angle_alpha   90.00000000
_cell_angle_beta   123.95960821
_cell_angle_gamma   90.00000000
_symmetry_Int_Tables_number   1
_chemical_formula_structural   Li2H24C12ClO6
_chemical_formula_sum   'Li8 H96 C48 Cl4 O24'
_cell_volume   2514.98394230
_cell_formula_units_Z   4
loop_
 _symmetry_equiv_pos_site_id
 _symmetry_equiv_pos_as_xyz
  1  'x, y, z'
loop_
 _atom_site_type_symbol
 _atom_site_label
 _atom_site_symmetry_multiplicity
 _atom_site_fract_x
 _atom_site_fract_y
 _atom_site_fract_z
 _atom_site_occupancy
 _atom_site_charge
  Li  Li0  1  0.33486680  0.08089959  0.08047094  1 0.758185
  Li  Li1  1  0.82749784  0.56997648  0.07543584  1 0.758185
  Li  Li2  1  0.67234850  0.07628939  0.43258970  1 0.758185
  Li  Li3  1  0.17013186  0.57562572  0.41931712  1 0.758185
  Li  Li4  1  0.67027580  0.92858641  0.92872818  1 0.758185
  Li  Li5  1  0.16845215  0.42038568  0.91417245  1 0.758185
  Li  Li6  1  0.33237391  0.92848977  0.57300921  1 0.758185
  Li  Li7  1  0.82533926  0.41998096  0.57360643  1 0.758185
  H  H8  1  0.15312810  0.07455104  0.09639500  1 0.037968
  H  H9  1  0.13341265  0.97378182  0.11337353  1 0.002442
  H  H10  1  0.26055974  0.88199516  0.14476180  1 0.008571
  H  H11  1  0.37019394  0.91917952  0.15383517  1 0.052646
  H  H12  1  0.19070927  0.97828671  0.83838938  1 0.022865
  H  H13  1  0.29287189  0.92933015  0.84356435  1 0.04899
  H  H14  1  0.44045453  0.00897019  0.89749779  1 0.068344
  H  H15  1  0.43820099  0.10989313  0.93565584  1 0.050687
  H  H16  1  0.37874632  0.22186524  0.24373826  1 0.066959
  H  H17  1  0.25693860  0.26807497  0.17069469  1 0.053715
  H  H18  1  0.11415236  0.22442708  0.93253108  1 0.02235
  H  H19  1  0.13957128  0.14818366  0.84712203  1 0.052136
  H  H20  1  0.64377904  0.56504930  0.09438969  1 0.037967
  H  H21  1  0.62507847  0.46422062  0.11186754  1 0.002442
  H  H22  1  0.75514227  0.37352213  0.14889680  1 0.008567
  H  H23  1  0.86359200  0.41152989  0.15598997  1 0.052645
  H  H24  1  0.70456899  0.43993106  0.86734238  1 0.022865
  H  H25  1  0.81199466  0.41098329  0.86249255  1 0.04899
  H  H26  1  0.92552853  0.51450860  0.87778539  1 0.068344
  H  H27  1  0.89641142  0.61187877  0.90056364  1 0.050683
  H  H28  1  0.87592283  0.70864696  0.24389419  1 0.066959
  H  H29  1  0.74998877  0.74583729  0.17550997  1 0.053715
  H  H30  1  0.61345749  0.71123756  0.92485129  1 0.022349
  H  H31  1  0.64855129  0.65011717  0.82897849  1 0.052136
  H  H32  1  0.84917036  0.06844876  0.40860234  1 0.037953
  H  H33  1  0.86451296  0.96821011  0.38186332  1 0.002443
  H  H34  1  0.73644153  0.87769712  0.34516872  1 0.008548
  H  H35  1  0.62955802  0.91378065  0.34497899  1 0.052537
  H  H36  1  0.80114824  0.96294992  0.65424340  1 0.02287
  H  H37  1  0.69260781  0.93067884  0.65394064  1 0.048991
  H  H38  1  0.57175901  0.03080863  0.62865739  1 0.068344
  H  H39  1  0.60029533  0.12960518  0.61142292  1 0.050682
  H  H40  1  0.64593921  0.20490054  0.24740911  1 0.066958
  H  H41  1  0.76877696  0.25138241  0.33483059  1 0.053707
  H  H42  1  0.89590424  0.21839868  0.58702012  1 0.022354
  H  H43  1  0.86033226  0.14818840  0.67010254  1 0.052206
  H  H44  1  0.34938659  0.56745123  0.39216713  1 0.037952
  H  H45  1  0.36580989  0.46580021  0.37666949  1 0.002443
  H  H46  1  0.23422214  0.37784246  0.34160026  1 0.008545
  H  H47  1  0.12507972  0.41850715  0.33032347  1 0.052535
  H  H48  1  0.31368365  0.46438520  0.65105418  1 0.022869
  H  H49  1  0.20740637  0.42103284  0.64368085  1 0.048991
  H  H50  1  0.07071804  0.50857143  0.60472371  1 0.068344
  H  H51  1  0.08388895  0.60967804  0.57955568  1 0.050678
  H  H52  1  0.12138513  0.71562731  0.25367317  1 0.066958
  H  H53  1  0.24534162  0.75613688  0.32028594  1 0.053707
  H  H54  1  0.38612246  0.71860087  0.56556269  1 0.022354
  H  H55  1  0.35634941  0.65229595  0.66112818  1 0.052206
  H  H56  1  0.84626256  0.93096694  0.90603019  1 0.037906
  H  H57  1  0.87186462  0.03020626  0.88959642  1 0.002619
  H  H58  1  0.75396797  0.12743213  0.86571292  1 0.008493
  H  H59  1  0.64416732  0.09736286  0.86267823  1 0.05246
  H  H60  1  0.80215759  0.04216136  0.15449216  1 0.022799
  H  H61  1  0.69808179  0.08069257  0.15832934  1 0.048967
  H  H62  1  0.56627705  0.98746807  0.12224818  1 0.068346
  H  H63  1  0.58244035  0.88803653  0.09000909  1 0.05048
  H  H64  1  0.62862934  0.79265594  0.75545835  1 0.066982
  H  H65  1  0.75501778  0.75566691  0.82578171  1 0.053721
  H  H66  1  0.89015674  0.79081615  0.07437238  1 0.022337
  H  H67  1  0.85501180  0.85134509  0.17091750  1 0.052201
  H  H68  1  0.35353916  0.43157444  0.89962931  1 0.037906
  H  H69  1  0.36655493  0.53309341  0.87826351  1 0.002619
  H  H70  1  0.23221734  0.61954652  0.83838237  1 0.00849
  H  H71  1  0.12462898  0.57783381  0.82955766  1 0.05246
  H  H72  1  0.30979039  0.53139031  0.14466046  1 0.022799
  H  H73  1  0.20243113  0.57318107  0.13615855  1 0.048967
  H  H74  1  0.06924483  0.48446287  0.10252883  1 0.068346
  H  H75  1  0.08489267  0.38317171  0.08228488  1 0.050478
  H  H76  1  0.12904303  0.28217013  0.74196423  1 0.066982
  H  H77  1  0.25136219  0.23668422  0.81630788  1 0.053721
  H  H78  1  0.39255127  0.27952909  0.05186732  1 0.022337
  H  H79  1  0.36868622  0.35571284  0.13877038  1 0.052201
  H  H80  1  0.15156134  0.95158987  0.58783834  1 0.037898
  H  H81  1  0.14942746  0.05300293  0.62115451  1 0.00262
  H  H82  1  0.29456559  0.13131139  0.67597195  1 0.008473
  H  H83  1  0.39857584  0.08332050  0.68382904  1 0.052361
  H  H84  1  0.19413081  0.04112377  0.34547238  1 0.022805
  H  H85  1  0.30249868  0.07895753  0.35171489  1 0.048968
  H  H86  1  0.43167178  0.98503561  0.38459165  1 0.068346
  H  H87  1  0.40982335  0.88468278  0.40242008  1 0.050477
  H  H88  1  0.37371900  0.79241346  0.74502995  1 0.066982
  H  H89  1  0.24939008  0.75221768  0.67742863  1 0.053714
  H  H90  1  0.10949350  0.78997849  0.43359376  1 0.022341
  H  H91  1  0.13909946  0.85594751  0.33740387  1 0.052268
  H  H92  1  0.65534890  0.40938120  0.61303366  1 0.037898
  H  H93  1  0.62562763  0.50713558  0.63232722  1 0.00262
  H  H94  1  0.73664214  0.60924153  0.65044010  1 0.008471
  H  H95  1  0.84416133  0.58343033  0.64390765  1 0.052361
  H  H96  1  0.68283614  0.53021746  0.34265709  1 0.022805
  H  H97  1  0.79084478  0.57129677  0.35078563  1 0.048968
  H  H98  1  0.92422040  0.47881138  0.38610816  1 0.068346
  H  H99  1  0.90422578  0.37826245  0.40482243  1 0.050475
  H  H100  1  0.85658037  0.28703787  0.74534996  1 0.066982
  H  H101  1  0.73375754  0.24015512  0.65720994  1 0.053714
  H  H102  1  0.60650354  0.27396857  0.40486522  1 0.022341
  H  H103  1  0.64349419  0.34412002  0.32284520  1 0.052268
  C  C104  1  0.19128565  0.02029542  0.15228217  1 0.014959
  C  C105  1  0.31609804  0.93023081  0.18464136  1 0.011969
  C  C106  1  0.24842219  0.98381946  0.81287790  1 0.009411
  C  C107  1  0.39146437  0.06071311  0.86799960  1 -0.010219
  C  C108  1  0.30940034  0.24353586  0.14458804  1 -0.009582
  C  C109  1  0.17103364  0.20073542  0.91397715  1 0.016166
  C  C110  1  0.68263418  0.51110274  0.15133537  1 0.01496
  C  C111  1  0.80961847  0.42246550  0.18693351  1 0.01197
  C  C112  1  0.75268435  0.45594910  0.82851342  1 0.009411
  C  C113  1  0.86319323  0.55611457  0.84649540  1 -0.010218
  C  C114  1  0.80569117  0.73210877  0.14818352  1 -0.009582
  C  C115  1  0.67410613  0.69812785  0.90675343  1 0.016166
  C  C116  1  0.80859900  0.01570143  0.34874001  1 0.014962
  C  C117  1  0.68226524  0.92648997  0.31234460  1 0.012008
  C  C118  1  0.75049098  0.97699625  0.68978338  1 0.00941
  C  C119  1  0.63355493  0.07366349  0.66466078  1 -0.010212
  C  C120  1  0.70898357  0.23018273  0.34937298  1 -0.009576
  C  C121  1  0.83291052  0.19735633  0.59462499  1 0.016145
  C  C122  1  0.30952123  0.51357652  0.33628872  1 0.014962
  C  C123  1  0.18051338  0.42731544  0.30126755  1 0.012009
  C  C124  1  0.25801038  0.47237056  0.67984983  1 0.00941
  C  C125  1  0.12535718  0.55710490  0.63961492  1 -0.010211
  C  C126  1  0.19184466  0.73862905  0.34967884  1 -0.009576
  C  C127  1  0.32777782  0.70185322  0.58633782  1 0.016145
  C  C128  1  0.81096493  0.98624830  0.85193468  1 0.014907
  C  C129  1  0.69465025  0.08206505  0.82730645  1 0.012105
  C  C130  1  0.74986825  0.03047234  0.18811179  1 0.009405
  C  C131  1  0.62248813  0.94080299  0.15106781  1 -0.010101
  C  C132  1  0.69855069  0.76926588  0.85172517  1 -0.009594
  C  C133  1  0.82964112  0.80343936  0.09296113  1 0.016149
  C  C134  1  0.31201103  0.48426784  0.84072970  1 0.014907
  C  C135  1  0.18023295  0.56905261  0.80078625  1 0.012106
  C  C136  1  0.25490014  0.52290725  0.17471430  1 0.009405
  C  C137  1  0.12510032  0.43671296  0.13945054  1 -0.0101
  C  C138  1  0.19824947  0.26075972  0.84167488  1 -0.009594
  C  C139  1  0.33636240  0.30333354  0.07171786  1 0.016149
  C  C140  1  0.19848329  0.00091948  0.65426853  1 0.014908
  C  C141  1  0.34063058  0.07760594  0.70890901  1 0.01214
  C  C142  1  0.24781641  0.03013833  0.31397245  1 0.009404
  C  C143  1  0.37293645  0.93937815  0.34678423  1 -0.010093
  C  C144  1  0.30333744  0.76952794  0.64877901  1 -0.009588
  C  C145  1  0.16764577  0.80640031  0.41223511  1 0.016129
  C  C146  1  0.68818391  0.46525649  0.66624405  1 0.014908
  C  C147  1  0.79734662  0.56557774  0.68401321  1 0.012141
  C  C148  1  0.73797579  0.52128062  0.31304257  1 0.009404
  C  C149  1  0.86633561  0.43259816  0.34863059  1 -0.010093
  C  C150  1  0.79367425  0.26176343  0.64333534  1 -0.009588
  C  C151  1  0.66996358  0.29485570  0.39803303  1 0.016129
  Cl  Cl152  1  0.50327232  0.09768004  0.26029072  1 -0.750677
  Cl  Cl153  1  0.99845261  0.58453177  0.24999153  1 -0.750677
  Cl  Cl154  1  0.50294568  0.91316475  0.74258922  1 -0.750675
  Cl  Cl155  1  0.99685568  0.40399802  0.74617025  1 -0.750675
  O  O156  1  0.26198137  0.00096957  0.11305786  1 -0.30249
  O  O157  1  0.31551293  0.04674465  0.89989544  1 -0.299714
  O  O158  1  0.26091778  0.17724388  0.05094743  1 -0.300891
  O  O159  1  0.75407795  0.49237924  0.11337986  1 -0.302491
  O  O160  1  0.80197170  0.52843563  0.89715790  1 -0.299714
  O  O161  1  0.76398262  0.67138882  0.04051669  1 -0.300891
  O  O162  1  0.73904637  0.99528539  0.38972086  1 -0.302497
  O  O163  1  0.69939110  0.04878655  0.61964287  1 -0.299714
  O  O164  1  0.75144682  0.16846405  0.45514272  1 -0.300887
  O  O165  1  0.23718603  0.49707168  0.37365690  1 -0.302497
  O  O166  1  0.19785310  0.53991706  0.60270246  1 -0.299714
  O  O167  1  0.23710783  0.67582925  0.45274227  1 -0.300887
  O  O168  1  0.74408675  0.00943331  0.89595858  1 -0.302496
  O  O169  1  0.69009800  0.96327174  0.10806364  1 -0.299728
  O  O170  1  0.73953980  0.83005686  0.95937163  1 -0.300886
  O  O171  1  0.23895537  0.50060930  0.87694228  1 -0.302497
  O  O172  1  0.19688122  0.45379578  0.10104215  1 -0.299728
  O  O173  1  0.24609769  0.32705590  0.93550330  1 -0.300886
  O  O174  1  0.27520440  0.01354432  0.62380474  1 -0.302502
  O  O175  1  0.30281773  0.95993221  0.38648273  1 -0.299727
  O  O176  1  0.25854471  0.83241128  0.54559428  1 -0.300882
  O  O177  1  0.74999733  0.49246339  0.61608803  1 -0.302502
  O  O178  1  0.79548320  0.45221389  0.38768409  1 -0.299727
  O  O179  1  0.75121177  0.32347192  0.53795883  1 -0.300882
