# generated using pymatgen
data_Cu2H7C18N3O8
_symmetry_space_group_name_H-M   'P 1'
_cell_length_a   18.75654200
_cell_length_b   18.75180389
_cell_length_c   35.65626308
_cell_angle_alpha   89.90593807
_cell_angle_beta   89.99108817
_cell_angle_gamma   120.22578502
_symmetry_Int_Tables_number   1
_chemical_formula_structural   Cu2H7C18N3O8
_chemical_formula_sum   'Cu18 H63 C162 N27 O72'
_cell_volume   10835.99573711
_cell_formula_units_Z   9
loop_
 _symmetry_equiv_pos_site_id
 _symmetry_equiv_pos_as_xyz
  1  'x, y, z'
loop_
 _atom_site_type_symbol
 _atom_site_label
 _atom_site_symmetry_multiplicity
 _atom_site_fract_x
 _atom_site_fract_y
 _atom_site_fract_z
 _atom_site_occupancy
 _atom_site_charge
  Cu  Cu0  1  0.00998135  0.50418515  0.00331815  1 0.832042
  Cu  Cu1  1  0.92364363  0.46028934  0.94665240  1 0.842298
  Cu  Cu2  1  0.68051377  0.83932973  0.33630491  1 0.83701
  Cu  Cu3  1  0.59341811  0.79352894  0.27988524  1 0.839963
  Cu  Cu4  1  0.34490447  0.16808075  0.67075046  1 0.834744
  Cu  Cu5  1  0.26010537  0.12735930  0.61377795  1 0.843196
  Cu  Cu6  1  0.44287133  0.49837642  0.00180033  1 0.837582
  Cu  Cu7  1  0.48571243  0.45529666  0.94541680  1 0.836364
  Cu  Cu8  1  0.15702696  0.78974897  0.27713995  1 0.83552
  Cu  Cu9  1  0.11240681  0.82956337  0.33399215  1 0.842213
  Cu  Cu10  1  0.77937336  0.16383832  0.66685324  1 0.839145
  Cu  Cu11  1  0.82128756  0.11918170  0.61043304  1 0.834892
  Cu  Cu12  1  0.49295012  0.02332934  0.94406092  1 0.83183
  Cu  Cu13  1  0.44883536  0.93620059  0.00051142  1 0.837388
  Cu  Cu14  1  0.16457842  0.35529120  0.28025345  1 0.837696
  Cu  Cu15  1  0.11742576  0.26863735  0.33683746  1 0.833162
  Cu  Cu16  1  0.82576006  0.68718394  0.61096515  1 0.841756
  Cu  Cu17  1  0.78611841  0.60074408  0.66801262  1 0.8419
  H  H18  1  0.28208769  0.24817971  0.21594365  1 0.120158
  H  H19  1  0.16103869  0.07537586  0.30607159  1 0.132577
  H  H20  1  0.28231152  0.01818153  0.21854125  1 0.127167
  H  H21  1  0.86572723  0.53997007  0.53379166  1 0.12717
  H  H22  1  0.83224391  0.40474061  0.63620907  1 0.13392
  H  H23  1  0.87583785  0.31504412  0.53266816  1 0.118736
  H  H24  1  0.61293800  0.68373258  0.88492469  1 0.127213
  H  H25  1  0.48348023  0.73832813  0.96939904  1 0.133314
  H  H26  1  0.61105295  0.91286404  0.88063436  1 0.118732
  H  H27  1  0.73349809  0.99154003  0.20328588  1 0.122326
  H  H28  1  0.87102684  0.07863580  0.30599771  1 0.131362
  H  H29  1  0.97147333  0.21472951  0.20356202  1 0.12628
  H  H30  1  0.36559752  0.35660947  0.55179481  1 0.119942
  H  H31  1  0.53984098  0.40640676  0.64064812  1 0.131826
  H  H32  1  0.59405205  0.58968547  0.55536590  1 0.127365
  H  H33  1  0.06375305  0.65073881  0.87155137  1 0.140199
  H  H34  1  0.20324323  0.75420081  0.97283733  1 0.135367
  H  H35  1  0.29494142  0.88138020  0.86762282  1 0.132586
  H  H36  1  0.95768428  0.73426448  0.20209204  1 0.120347
  H  H37  1  0.87168442  0.78004740  0.30622058  1 0.133541
  H  H38  1  0.73152000  0.74168707  0.20512849  1 0.126012
  H  H39  1  0.61992644  0.05806305  0.53704715  1 0.118908
  H  H40  1  0.53643490  0.10975540  0.64047246  1 0.131273
  H  H41  1  0.39912458  0.07530805  0.53879913  1 0.127313
  H  H42  1  0.06116333  0.40441329  0.87245992  1 0.128431
  H  H43  1  0.20099998  0.44513744  0.97388553  1 0.132212
  H  H44  1  0.28478376  0.39225229  0.87086229  1 0.119643
  H  H45  1  0.23177938  0.28374625  0.73484424  1 0.13229
  H  H46  1  0.06318342  0.16353441  0.64343836  1 0.13591
  H  H47  1  0.00312896  0.28659448  0.72910874  1 0.139058
  H  H48  1  0.90059577  0.62431305  0.06616843  1 0.132337
  H  H49  1  0.72737074  0.49805709  0.97696693  1 0.136751
  H  H50  1  0.66926832  0.62220276  0.06284488  1 0.138199
  H  H51  1  0.33513552  0.94912308  0.39726138  1 0.137915
  H  H52  1  0.39768504  0.83105788  0.31014445  1 0.136581
  H  H53  1  0.56928813  0.95700865  0.39991565  1 0.132873
  H  H54  1  0.23748198  0.93927392  0.73266576  1 0.118102
  H  H55  1  0.06900250  0.88500774  0.64077946  1 0.13203
  H  H56  1  0.01485178  0.70158716  0.72601779  1 0.129223
  H  H57  1  0.90651431  0.27598478  0.06382286  1 0.137445
  H  H58  1  0.72535647  0.21774435  0.97718655  1 0.135981
  H  H59  1  0.67858367  0.04174012  0.06523068  1 0.135678
  H  H60  1  0.54012371  0.64758221  0.41307141  1 0.138558
  H  H61  1  0.40406903  0.54488851  0.31093697  1 0.136613
  H  H62  1  0.31146049  0.41410752  0.41528346  1 0.132629
  H  H63  1  0.73904730  0.74466629  0.74419213  1 0.139595
  H  H64  1  0.77449168  0.88127918  0.64189934  1 0.136999
  H  H65  1  0.72804164  0.96932079  0.74534606  1 0.133212
  H  H66  1  0.39591074  0.07463624  0.07589256  1 0.137916
  H  H67  1  0.43185800  0.21285844  0.97405209  1 0.135581
  H  H68  1  0.38947140  0.30157290  0.07824147  1 0.13433
  H  H69  1  0.98528267  0.60051744  0.39240223  1 0.139546
  H  H70  1  0.11672779  0.54754541  0.30809940  1 0.135514
  H  H71  1  0.98853667  0.37195898  0.39656147  1 0.133186
  H  H72  1  0.19097953  0.28698790  0.80591163  1 0.142666
  H  H73  1  0.52567666  0.95489231  0.47221771  1 0.146657
  H  H74  1  0.86169084  0.62759575  0.13754781  1 0.144185
  H  H75  1  0.19996442  0.89003424  0.81155064  1 0.142514
  H  H76  1  0.40712211  0.40615729  0.47119952  1 0.148052
  H  H77  1  0.72225807  0.08520191  0.13855397  1 0.14718
  H  H78  1  0.62318020  0.87333400  0.79993847  1 0.144021
  H  H79  1  0.98420936  0.41301138  0.46816499  1 0.143941
  H  H80  1  0.28653939  0.20618959  0.13457003  1 0.147599
  C  C81  1  0.28861843  0.13596123  0.21324957  1 0.062648
  C  C82  1  0.26507018  0.18923769  0.22912281  1 -0.117023
  C  C83  1  0.22014390  0.16772183  0.26277783  1 -0.026749
  C  C84  1  0.19689748  0.09231753  0.28027865  1 -0.088933
  C  C85  1  0.21857477  0.03821333  0.26388120  1 -0.026879
  C  C86  1  0.26520869  0.06045808  0.23095355  1 -0.102042
  C  C87  1  0.87368949  0.42949075  0.52846528  1 0.062718
  C  C88  1  0.86345881  0.48802160  0.54853953  1 -0.100319
  C  C89  1  0.84983035  0.47991075  0.58721416  1 -0.026489
  C  C90  1  0.84488866  0.41234000  0.60626215  1 -0.087358
  C  C91  1  0.85480395  0.35364668  0.58637007  1 -0.027831
  C  C92  1  0.87002824  0.36249373  0.54764311  1 -0.122228
  C  C93  1  0.61839373  0.80098604  0.87886442  1 0.062121
  C  C94  1  0.59408876  0.72529725  0.89661641  1 -0.101059
  C  C95  1  0.54482302  0.70229803  0.92874236  1 -0.025409
  C  C96  1  0.52106405  0.75567098  0.94413079  1 -0.090624
  C  C97  1  0.54497902  0.83114309  0.92651851  1 -0.029757
  C  C98  1  0.59290079  0.85359320  0.89376478  1 -0.119727
  C  C99  1  0.85145906  0.10521522  0.19867211  1 0.061537
  C  C100  1  0.78775576  0.03852792  0.21803127  1 -0.11502
  C  C101  1  0.79501270  0.02932859  0.25664316  1 -0.029887
  C  C102  1  0.86510543  0.08697491  0.27620611  1 -0.089738
  C  C103  1  0.92817154  0.15419948  0.25700330  1 -0.029275
  C  C104  1  0.92152425  0.16301888  0.21847316  1 -0.10219
  C  C105  1  0.47679585  0.47710041  0.54979109  1 0.062108
  C  C106  1  0.42444562  0.39879719  0.56498810  1 -0.117911
  C  C107  1  0.44691480  0.37404609  0.59791345  1 -0.028597
  C  C108  1  0.52216398  0.42651947  0.61547584  1 -0.090347
  C  C109  1  0.57530808  0.50393014  0.59977661  1 -0.026776
  C  C110  1  0.55226757  0.52942862  0.56745639  1 -0.097913
  C  C111  1  0.17744704  0.76676239  0.86561568  1 0.142501
  C  C112  1  0.11683505  0.69995212  0.88591615  1 -0.138131
  C  C113  1  0.12591668  0.69592014  0.92459555  1 -0.010063
  C  C114  1  0.19507506  0.75837107  0.94287622  1 -0.091465
  C  C115  1  0.25500303  0.82540720  0.92227399  1 -0.012535
  C  C116  1  0.24645248  0.83013243  0.88341772  1 -0.159247
  C  C117  1  0.84235018  0.73490512  0.19881928  1 0.061187
  C  C118  1  0.91049640  0.73998436  0.21738090  1 -0.119804
  C  C119  1  0.92079978  0.75637138  0.25596386  1 -0.027613
  C  C120  1  0.86261309  0.76616974  0.27640821  1 -0.089615
  C  C121  1  0.79380968  0.75965460  0.25799921  1 -0.026312
  C  C122  1  0.78423679  0.74480311  0.21943969  1 -0.101372
  C  C123  1  0.50719088  0.06341353  0.53314811  1 0.060245
  C  C124  1  0.57371786  0.06581442  0.55209296  1 -0.115721
  C  C125  1  0.58398966  0.08239165  0.59068259  1 -0.031111
  C  C126  1  0.52735129  0.09541135  0.61070438  1 -0.088877
  C  C127  1  0.46028762  0.09190322  0.59187982  1 -0.027996
  C  C128  1  0.45064060  0.07644765  0.55337363  1 -0.099377
  C  C129  1  0.17053248  0.39467756  0.86692335  1 0.061835
  C  C130  1  0.11331750  0.40692227  0.88705329  1 -0.099904
  C  C131  1  0.12341111  0.42374739  0.92544474  1 -0.028693
  C  C132  1  0.19161642  0.42970224  0.94422318  1 -0.089344
  C  C133  1  0.24891230  0.41764007  0.92427802  1 -0.030771
  C  C134  1  0.23812721  0.39938628  0.88584953  1 -0.119052
  C  C135  1  0.11946558  0.29060809  0.73528204  1 0.152858
  C  C136  1  0.17352052  0.26663660  0.72104374  1 -0.159299
  C  C137  1  0.15253546  0.22059484  0.68781710  1 -0.011232
  C  C138  1  0.07882962  0.19928939  0.66918148  1 -0.093464
  C  C139  1  0.02492674  0.22280173  0.68415757  1 -0.009759
  C  C140  1  0.04513301  0.26863450  0.71721904  1 -0.14339
  C  C141  1  0.78724864  0.62907617  0.06766547  1 0.151248
  C  C142  1  0.84139508  0.60570753  0.05297780  1 -0.16008
  C  C143  1  0.81915979  0.55819562  0.02016820  1 -0.00925
  C  C144  1  0.74402484  0.53476164  0.00244850  1 -0.092634
  C  C145  1  0.68993479  0.55740256  0.01800189  1 -0.008954
  C  C146  1  0.71142921  0.60484118  0.05058629  1 -0.1437
  C  C147  1  0.45439563  0.95874115  0.40175851  1 0.140323
  C  C148  1  0.37827722  0.93336285  0.38474998  1 -0.140275
  C  C149  1  0.35792457  0.88706931  0.35183418  1 -0.008416
  C  C150  1  0.41342370  0.86679766  0.33589614  1 -0.092717
  C  C151  1  0.48883790  0.89138389  0.35355087  1 -0.010104
  C  C152  1  0.50993370  0.93763261  0.38671325  1 -0.15562
  C  C153  1  0.12895235  0.81667491  0.73325671  1 0.064199
  C  C154  1  0.18019906  0.89585592  0.71864471  1 -0.121919
  C  C155  1  0.15881373  0.91993603  0.68522287  1 -0.027051
  C  C156  1  0.08578547  0.86565223  0.66644807  1 -0.092869
  C  C157  1  0.03372380  0.78722108  0.68148359  1 -0.026677
  C  C158  1  0.05568373  0.76261082  0.71440155  1 -0.099255
  C  C159  1  0.79599759  0.15657435  0.06764104  1 0.141825
  C  C160  1  0.84731434  0.23350732  0.05115798  1 -0.142764
  C  C161  1  0.82163975  0.25550573  0.01862764  1 -0.008456
  C  C162  1  0.74532449  0.20075344  0.00259705  1 -0.094336
  C  C163  1  0.69384452  0.12451196  0.01970243  1 -0.010489
  C  C164  1  0.71888813  0.10174103  0.05245894  1 -0.154765
  C  C165  1  0.42739276  0.53033712  0.41815659  1 0.142048
  C  C166  1  0.48772782  0.59837633  0.39833846  1 -0.142569
  C  C167  1  0.47940633  0.60331576  0.35965802  1 -0.008069
  C  C168  1  0.41145289  0.54032702  0.34093665  1 -0.092156
  C  C169  1  0.35188623  0.47205031  0.36102369  1 -0.011164
  C  C170  1  0.35953563  0.46653121  0.39988702  1 -0.157872
  C  C171  1  0.73094932  0.85514051  0.74875002  1 0.140901
  C  C172  1  0.74185015  0.79668786  0.72933565  1 -0.143349
  C  C173  1  0.75747076  0.80622692  0.69084086  1 -0.008756
  C  C174  1  0.76136155  0.87333206  0.67180292  1 -0.090636
  C  C175  1  0.74969014  0.93113680  0.69149677  1 -0.011042
  C  C176  1  0.73445934  0.92241850  0.73023043  1 -0.160189
  C  C177  1  0.39009496  0.18615555  0.08109262  1 0.140286
  C  C178  1  0.39904396  0.12700995  0.06123552  1 -0.145541
  C  C179  1  0.41382057  0.13651223  0.02265446  1 -0.006764
  C  C180  1  0.41876438  0.20442376  0.00396216  1 -0.093637
  C  C181  1  0.40879110  0.26279955  0.02409374  1 -0.011758
  C  C182  1  0.39435575  0.25405121  0.06287380  1 -0.156283
  C  C183  1  0.98077927  0.48367912  0.39752979  1 0.141934
  C  C184  1  0.00427968  0.55938918  0.38041420  1 -0.142795
  C  C185  1  0.05327255  0.58221875  0.34822439  1 -0.007546
  C  C186  1  0.07840134  0.52964751  0.33314757  1 -0.094642
  C  C187  1  0.05568974  0.45461868  0.35094498  1 -0.009552
  C  C188  1  0.00646726  0.43101939  0.38330195  1 -0.160676
  C  C189  1  0.06267800  0.43947973  0.94544760  1 0.582802
  C  C190  1  0.87532042  0.53139149  0.00372888  1 0.581314
  C  C191  1  0.87503685  0.33915863  0.00182977  1 0.58467
  C  C192  1  0.06302790  0.62119183  0.94540061  1 0.583027
  C  C193  1  0.73190442  0.77287486  0.27849136  1 0.584084
  C  C194  1  0.54637449  0.86679952  0.33679879  1 0.58084
  C  C195  1  0.54153594  0.67886651  0.33902716  1 0.582034
  C  C196  1  0.73132893  0.95388147  0.27661471  1 0.581345
  C  C197  1  0.20885426  0.19375239  0.67161325  1 0.581591
  C  C198  1  0.39992851  0.10808699  0.61198108  1 0.583782
  C  C199  1  0.39128666  0.29055697  0.61423237  1 0.584973
  C  C200  1  0.21335358  0.00433586  0.66949313  1 0.583122
  C  C201  1  0.32563907  0.43168336  0.94340687  1 0.584831
  C  C202  1  0.60704590  0.52812933  0.00092658  1 0.582893
  C  C203  1  0.51532030  0.61934789  0.94579850  1 0.584191
  C  C204  1  0.42117989  0.33895784  0.00464251  1 0.582092
  C  C205  1  0.18882152  0.95475036  0.28033669  1 0.584587
  C  C206  1  0.08187434  0.66534128  0.33137289  1 0.586032
  C  C207  1  0.99737981  0.76977163  0.27501645  1 0.582074
  C  C208  1  0.27517854  0.85721510  0.33453926  1 0.583686
  C  C209  1  0.66006968  0.09439721  0.60985972  1 0.58384
  C  C210  1  0.94311588  0.19553016  0.66619434  1 0.582778
  C  C211  1  0.84191769  0.27776015  0.60620614  1 0.583504
  C  C212  1  0.76044870  0.00626070  0.67150180  1 0.582218
  C  C213  1  0.51877654  0.88742673  0.94312924  1 0.584156
  C  C214  1  0.42869419  0.07530120  0.00243295  1 0.582629
  C  C215  1  0.61135984  0.06797979  0.00261696  1 0.582373
  C  C216  1  0.33237050  0.88819320  0.94136637  1 0.583164
  C  C217  1  0.19506001  0.22450727  0.27983914  1 0.58298
  C  C218  1  0.08517914  0.39988849  0.33538737  1 0.582539
  C  C219  1  0.27618613  0.40830354  0.34116846  1 0.582637
  C  C220  1  0.00466781  0.21501939  0.27713271  1 0.584205
  C  C221  1  0.77261348  0.74506844  0.67064017  1 0.582459
  C  C222  1  0.83736901  0.54240185  0.60771341  1 0.583625
  C  C223  1  0.65934711  0.55769079  0.61599233  1 0.585807
  C  C224  1  0.95141386  0.73134525  0.66405391  1 0.585105
  C  C225  1  0.15683453  0.38006072  0.82656259  1 0.090754
  C  C226  1  0.16812889  0.32927344  0.80210240  1 -0.153281
  C  C227  1  0.49352220  0.04949399  0.49276021  1 0.093329
  C  C228  1  0.50377538  0.99794771  0.46835720  1 -0.159882
  C  C229  1  0.82819904  0.72095453  0.15843833  1 0.093608
  C  C230  1  0.83870714  0.66981173  0.13389236  1 -0.152299
  C  C231  1  0.14559564  0.78758868  0.76846812  1 0.089353
  C  C232  1  0.17693019  0.82716391  0.80234768  1 -0.161046
  C  C233  1  0.45897808  0.50693877  0.51506361  1 0.094239
  C  C234  1  0.42852781  0.46841083  0.48090624  1 -0.15812
  C  C235  1  0.84991822  0.11772267  0.15821049  1 0.096224
  C  C236  1  0.78721013  0.10703632  0.13422663  1 -0.158202
  C  C237  1  0.66808231  0.81955905  0.84470911  1 0.092489
  C  C238  1  0.66291941  0.85136920  0.81038897  1 -0.159935
  C  C239  1  0.88699573  0.44209432  0.48795699  1 0.094851
  C  C240  1  0.93995303  0.43322840  0.46389567  1 -0.163605
  C  C241  1  0.33499969  0.15327484  0.17810609  1 0.093439
  C  C242  1  0.32692692  0.18415779  0.14403689  1 -0.158785
  N  N243  1  0.10765681  0.39070160  0.77244249  1 -0.092742
  N  N244  1  0.12012776  0.41635359  0.80690549  1 -0.19896
  N  N245  1  0.13642286  0.33678880  0.76886856  1 0.103402
  N  N246  1  0.44418404  0.06020440  0.43868552  1 -0.109846
  N  N247  1  0.45737127  0.08634456  0.47312036  1 -0.209405
  N  N248  1  0.47200083  0.00557283  0.43519320  1 0.133062
  N  N249  1  0.77700043  0.73044838  0.10466238  1 -0.100404
  N  N250  1  0.79074352  0.75683894  0.13905702  1 -0.208311
  N  N251  1  0.80571605  0.67659666  0.10091565  1 0.107624
  N  N252  1  0.13187835  0.69167329  0.80782107  1 -0.100574
  N  N253  1  0.11945128  0.70517006  0.77335724  1 -0.201917
  N  N254  1  0.16683324  0.76590588  0.82620888  1 0.129789
  N  N255  1  0.47038910  0.60333846  0.47660563  1 -0.114142
  N  N256  1  0.48322365  0.58907286  0.51093011  1 -0.21252
  N  N257  1  0.43722747  0.52999308  0.45761151  1 0.131597
  N  N258  1  0.90833143  0.16557403  0.10360567  1 -0.110817
  N  N259  1  0.92238792  0.15313991  0.13799438  1 -0.211111
  N  N260  1  0.82557918  0.13789091  0.10070212  1 0.131879
  N  N261  1  0.75603997  0.80977451  0.80773456  1 -0.108867
  N  N262  1  0.72614227  0.79551865  0.84158044  1 -0.21058
  N  N263  1  0.71761943  0.84370660  0.78801666  1 0.132119
  N  N264  1  0.87561026  0.48977310  0.43351464  1 -0.108023
  N  N265  1  0.84887810  0.47639377  0.46790227  1 -0.207449
  N  N266  1  0.93191625  0.46396249  0.43047531  1 0.13151
  N  N267  1  0.41900168  0.14152487  0.13927964  1 -0.115113
  N  N268  1  0.39224671  0.12851867  0.17366237  1 -0.211072
  N  N269  1  0.37922628  0.17527349  0.12050145  1 0.134134
  O  O270  1  0.08064451  0.46799410  0.97880752  1 -0.510766
  O  O271  1  0.93601780  0.54105261  0.02380219  1 -0.520429
  O  O272  1  0.93603814  0.39112077  0.02157410  1 -0.51725
  O  O273  1  0.07923200  0.61300814  0.97938819  1 -0.511459
  O  O274  1  0.99943864  0.57046425  0.92666815  1 -0.513105
  O  O275  1  0.85441568  0.35155326  0.96940264  1 -0.509135
  O  O276  1  0.85683410  0.50027548  0.97086835  1 -0.513818
  O  O277  1  0.99823690  0.42480784  0.92694935  1 -0.512538
  O  O278  1  0.74899982  0.79987818  0.31209035  1 -0.512159
  O  O279  1  0.60831892  0.87889919  0.35652788  1 -0.5151
  O  O280  1  0.60502949  0.73034893  0.35760596  1 -0.512592
  O  O281  1  0.74749404  0.94489876  0.31058206  1 -0.515755
  O  O282  1  0.66755827  0.90316466  0.25795882  1 -0.514666
  O  O283  1  0.52458823  0.68660489  0.30511801  1 -0.511793
  O  O284  1  0.52751636  0.83453912  0.30415301  1 -0.515776
  O  O285  1  0.66737957  0.75803676  0.26000157  1 -0.513853
  O  O286  1  0.26981050  0.20397642  0.69160258  1 -0.518968
  O  O287  1  0.41564055  0.13202808  0.64606505  1 -0.510022
  O  O288  1  0.41039535  0.27638402  0.64673819  1 -0.517624
  O  O289  1  0.27271281  0.05606096  0.69015826  1 -0.520316
  O  O290  1  0.19559818  0.01790747  0.63660765  1 -0.514076
  O  O291  1  0.32971474  0.24007340  0.59433204  1 -0.515044
  O  O292  1  0.33781727  0.09789276  0.59281003  1 -0.511651
  O  O293  1  0.19026004  0.16241071  0.63878520  1 -0.513503
  O  O294  1  0.33440532  0.45332121  0.97787787  1 -0.516778
  O  O295  1  0.55690681  0.54163517  0.01962457  1 -0.513993
  O  O296  1  0.47818555  0.60476997  0.97739729  1 -0.510053
  O  O297  1  0.41268440  0.39102607  0.02442489  1 -0.51897
  O  O298  1  0.44185820  0.34693440  0.97008283  1 -0.517529
  O  O299  1  0.52855351  0.56888784  0.92718033  1 -0.514367
  O  O300  1  0.59268785  0.49104969  0.96942206  1 -0.509724
  O  O301  1  0.37805146  0.42356810  0.92358305  1 -0.519818
  O  O302  1  0.19962516  0.90399946  0.26059329  1 -0.516255
  O  O303  1  0.11262512  0.67842123  0.29840590  1 -0.511675
  O  O304  1  0.04887812  0.75957960  0.25552504  1 -0.520138
  O  O305  1  0.26306654  0.82444881  0.30206362  1 -0.509532
  O  O306  1  0.22308650  0.86641748  0.35394903  1 -0.513405
  O  O307  1  0.00653105  0.79262697  0.30931786  1 -0.511923
  O  O308  1  0.07407399  0.71687305  0.35186720  1 -0.515118
  O  O309  1  0.15369663  0.93981501  0.31242424  1 -0.508463
  O  O310  1  0.67003881  0.11813563  0.64404408  1 -0.517226
  O  O311  1  0.89238377  0.20776304  0.68511770  1 -0.510483
  O  O312  1  0.81313896  0.26697421  0.63956317  1 -0.514417
  O  O313  1  0.74957993  0.05746668  0.69073120  1 -0.517413
  O  O314  1  0.78232178  0.01398403  0.63710695  1 -0.517293
  O  O315  1  0.85778182  0.22855959  0.58805335  1 -0.518214
  O  O316  1  0.93021912  0.16102659  0.63410873  1 -0.512503
  O  O317  1  0.71077755  0.08331794  0.59019956  1 -0.519801
  O  O318  1  0.53286955  0.95118086  0.92414974  1 -0.520388
  O  O319  1  0.45154011  0.09047453  0.96820174  1 -0.515122
  O  O320  1  0.59794415  0.08935019  0.97050079  1 -0.519683
  O  O321  1  0.38465689  0.94913271  0.92155608  1 -0.518739
  O  O322  1  0.34081173  0.87392998  0.97564222  1 -0.518055
  O  O323  1  0.56120739  0.00420097  0.02144704  1 -0.513042
  O  O324  1  0.41936215  0.01374356  0.02183513  1 -0.514308
  O  O325  1  0.48374058  0.86664118  0.97527381  1 -0.51511
  O  O326  1  0.20595888  0.28603848  0.25993493  1 -0.512068
  O  O327  1  0.12045715  0.42009115  0.30335644  1 -0.516429
  O  O328  1  0.26894609  0.42347188  0.30687448  1 -0.516086
  O  O329  1  0.05628882  0.27884859  0.25863079  1 -0.512854
  O  O330  1  0.01300030  0.19761572  0.31096680  1 -0.512224
  O  O331  1  0.22423381  0.34581717  0.36025853  1 -0.519646
  O  O332  1  0.07348145  0.33840691  0.35549244  1 -0.520074
  O  O333  1  0.16382447  0.20644670  0.31278801  1 -0.517461
  O  O334  1  0.79732318  0.76219604  0.63674928  1 -0.50589
  O  O335  1  0.85051000  0.60623530  0.58910199  1 -0.511899
  O  O336  1  0.71029950  0.61817095  0.59558986  1 -0.513667
  O  O337  1  0.93787786  0.75135517  0.63169143  1 -0.510851
  O  O338  1  0.90076302  0.66953366  0.68391409  1 -0.511439
  O  O339  1  0.67350455  0.53739933  0.64816980  1 -0.510776
  O  O340  1  0.81326754  0.52573426  0.64175809  1 -0.505282
  O  O341  1  0.76086378  0.68211616  0.68954690  1 -0.513268
