# generated using pymatgen
data_Cu6H30C24S3(N9O7)2
_symmetry_space_group_name_H-M   'P 1'
_cell_length_a   14.26325944
_cell_length_b   23.79414204
_cell_length_c   22.67613309
_cell_angle_alpha   90.00000194
_cell_angle_beta   89.99991318
_cell_angle_gamma   89.99996350
_symmetry_Int_Tables_number   1
_chemical_formula_structural   Cu6H30C24S3(N9O7)2
_chemical_formula_sum   'Cu24 H120 C96 S12 N72 O56'
_cell_volume   7695.87187482
_cell_formula_units_Z   4
loop_
 _symmetry_equiv_pos_site_id
 _symmetry_equiv_pos_as_xyz
  1  'x, y, z'
loop_
 _atom_site_type_symbol
 _atom_site_label
 _atom_site_symmetry_multiplicity
 _atom_site_fract_x
 _atom_site_fract_y
 _atom_site_fract_z
 _atom_site_occupancy
 _atom_site_charge
  Cu  Cu0  1  0.58727837  0.59062470  0.86177837  1 0.411832
  Cu  Cu1  1  0.60554626  0.52368619  0.98072902  1 0.777387
  Cu  Cu2  1  0.59489730  0.65761728  0.98306709  1 0.776167
  Cu  Cu3  1  0.41272153  0.90937578  0.86177744  1 0.411844
  Cu  Cu4  1  0.39445388  0.97631599  0.98073069  1 0.777386
  Cu  Cu5  1  0.40510217  0.84238065  0.98306901  1 0.776146
  Cu  Cu6  1  0.08727872  0.90937575  0.63822084  1 0.411807
  Cu  Cu7  1  0.10554591  0.97631474  0.51926996  1 0.777388
  Cu  Cu8  1  0.09489710  0.84238189  0.51693175  1 0.776128
  Cu  Cu9  1  0.91272120  0.59062454  0.63822117  1 0.411765
  Cu  Cu10  1  0.89445501  0.52368555  0.51927056  1 0.777394
  Cu  Cu11  1  0.90510305  0.65761751  0.51693252  1 0.776181
  Cu  Cu12  1  0.41272284  0.40937524  0.13822361  1 0.41184
  Cu  Cu13  1  0.39445552  0.47631622  0.01926958  1 0.777345
  Cu  Cu14  1  0.40510405  0.34238079  0.01693191  1 0.776152
  Cu  Cu15  1  0.58727845  0.09062430  0.13822217  1 0.411862
  Cu  Cu16  1  0.60554751  0.02368553  0.01927126  1 0.777422
  Cu  Cu17  1  0.59489882  0.15761811  0.01693254  1 0.776118
  Cu  Cu18  1  0.91272151  0.09062441  0.36177758  1 0.411865
  Cu  Cu19  1  0.89445204  0.02368519  0.48072881  1 0.777342
  Cu  Cu20  1  0.90510154  0.15761860  0.48306731  1 0.776192
  Cu  Cu21  1  0.08727890  0.40937554  0.36177863  1 0.411759
  Cu  Cu22  1  0.10554644  0.47631428  0.48072930  1 0.777385
  Cu  Cu23  1  0.09489796  0.34238254  0.48306716  1 0.776174
  H  H24  1  0.61314508  0.78911111  0.92605918  1 0.159645
  H  H25  1  0.61772507  0.48147503  0.76144430  1 0.117672
  H  H26  1  0.60972936  0.49817315  0.12624139  1 0.136859
  H  H27  1  0.61844880  0.69953922  0.76379625  1 0.114637
  H  H28  1  0.61261499  0.67738863  0.12923161  1 0.133036
  H  H29  1  0.61656123  0.39299397  0.92392102  1 0.161563
  H  H30  1  0.58953550  0.36572901  0.76207924  1 0.089362
  H  H31  1  0.62001847  0.33273355  0.83016387  1 0.149655
  H  H32  1  0.79151652  0.36585933  0.81287148  1 0.110148
  H  H33  1  0.59251845  0.62368803  0.23177398  1 0.105386
  H  H34  1  0.59396370  0.54891722  0.23011696  1 0.109475
  H  H35  1  0.77531619  0.58692715  0.18392426  1 0.116509
  H  H36  1  0.79380302  0.81438620  0.81233965  1 0.110861
  H  H37  1  0.58989903  0.81567667  0.76470083  1 0.085718
  H  H38  1  0.62522378  0.84894901  0.83140591  1 0.136786
  H  H39  1  0.38685375  0.71088859  0.92605915  1 0.159593
  H  H40  1  0.38227440  0.01852539  0.76144435  1 0.117684
  H  H41  1  0.39027249  0.00182686  0.12624179  1 0.13686
  H  H42  1  0.38155106  0.80046082  0.76379652  1 0.114609
  H  H43  1  0.38738281  0.82261126  0.12923199  1 0.133021
  H  H44  1  0.38343982  0.10700740  0.92392067  1 0.161605
  H  H45  1  0.41046426  0.13427142  0.76207875  1 0.089356
  H  H46  1  0.37998133  0.16726707  0.83016360  1 0.149645
  H  H47  1  0.20848331  0.13414118  0.81287164  1 0.110151
  H  H48  1  0.40748178  0.87631228  0.23177455  1 0.105375
  H  H49  1  0.40603647  0.95108298  0.23011733  1 0.109443
  H  H50  1  0.22468452  0.91307291  0.18392418  1 0.116507
  H  H51  1  0.20619615  0.68561386  0.81233985  1 0.110857
  H  H52  1  0.41010060  0.68432356  0.76470100  1 0.085722
  H  H53  1  0.37477584  0.65105094  0.83140600  1 0.136822
  H  H54  1  0.11314574  0.71088855  0.57394071  1 0.159607
  H  H55  1  0.11772519  0.01852517  0.73855527  1 0.1177
  H  H56  1  0.10972780  0.00182684  0.37375849  1 0.13688
  H  H57  1  0.11844888  0.80046108  0.73620316  1 0.114615
  H  H58  1  0.11261703  0.82261120  0.37076830  1 0.132994
  H  H59  1  0.11655985  0.10700744  0.57607921  1 0.161609
  H  H60  1  0.08953522  0.13427122  0.73792105  1 0.089344
  H  H61  1  0.12001811  0.16726701  0.66983637  1 0.1497
  H  H62  1  0.29151620  0.13414132  0.68712836  1 0.110149
  H  H63  1  0.09251838  0.87631218  0.26822582  1 0.105377
  H  H64  1  0.09396343  0.95108292  0.26988287  1 0.109459
  H  H65  1  0.27531563  0.91307286  0.31607598  1 0.116505
  H  H66  1  0.29380373  0.68561360  0.68766006  1 0.110851
  H  H67  1  0.08989926  0.68432368  0.73529888  1 0.085725
  H  H68  1  0.12522395  0.65105102  0.66859391  1 0.13682
  H  H69  1  0.88685465  0.78911117  0.57394070  1 0.159629
  H  H70  1  0.88227467  0.48147507  0.73855565  1 0.117676
  H  H71  1  0.89027010  0.49817293  0.37375895  1 0.136874
  H  H72  1  0.88155090  0.69953918  0.73620353  1 0.1146
  H  H73  1  0.88738564  0.67738850  0.37076857  1 0.132956
  H  H74  1  0.88343851  0.39299397  0.57607894  1 0.161557
  H  H75  1  0.91046427  0.36572901  0.73792077  1 0.08937
  H  H76  1  0.87998139  0.33273357  0.66983610  1 0.149658
  H  H77  1  0.70848328  0.36585938  0.68712850  1 0.110146
  H  H78  1  0.90748116  0.62368804  0.26822629  1 0.105357
  H  H79  1  0.90603596  0.54891730  0.26988314  1 0.109438
  H  H80  1  0.72468350  0.58692773  0.31607606  1 0.116486
  H  H81  1  0.70619640  0.81438610  0.68765982  1 0.110847
  H  H82  1  0.91010050  0.81567661  0.73529899  1 0.085733
  H  H83  1  0.87477604  0.84894899  0.66859389  1 0.136781
  H  H84  1  0.38685475  0.21088869  0.07394126  1 0.159597
  H  H85  1  0.38227488  0.51852478  0.23855571  1 0.117665
  H  H86  1  0.39027084  0.50182678  0.87375909  1 0.136868
  H  H87  1  0.38155080  0.30046080  0.23620395  1 0.114598
  H  H88  1  0.38738496  0.32261110  0.87076843  1 0.133014
  H  H89  1  0.38343866  0.60700558  0.07607884  1 0.161568
  H  H90  1  0.41046433  0.63427073  0.23792062  1 0.089375
  H  H91  1  0.37998120  0.66726607  0.16983603  1 0.149676
  H  H92  1  0.20848325  0.63414026  0.18712859  1 0.110168
  H  H93  1  0.40748110  0.37631214  0.76822618  1 0.105367
  H  H94  1  0.40603588  0.45108284  0.76988341  1 0.109444
  H  H95  1  0.22468337  0.41307262  0.81607597  1 0.116496
  H  H96  1  0.20619720  0.18561383  0.18766040  1 0.110852
  H  H97  1  0.41010094  0.18432352  0.23529952  1 0.085783
  H  H98  1  0.37477656  0.15105105  0.16859450  1 0.136761
  H  H99  1  0.61314553  0.28911105  0.07394101  1 0.159644
  H  H100  1  0.61772587  0.98147478  0.23855635  1 0.117664
  H  H101  1  0.60972881  0.99817327  0.87375938  1 0.136863
  H  H102  1  0.61844930  0.19953931  0.23620380  1 0.114621
  H  H103  1  0.61261842  0.17738887  0.87076883  1 0.132999
  H  H104  1  0.61656075  0.89299332  0.07607986  1 0.161572
  H  H105  1  0.58953553  0.86572888  0.23792161  1 0.089347
  H  H106  1  0.62001791  0.83273326  0.16983645  1 0.14965
  H  H107  1  0.79151626  0.86585847  0.18712836  1 0.110154
  H  H108  1  0.59251860  0.12368789  0.76822647  1 0.105356
  H  H109  1  0.59396381  0.04891721  0.76988380  1 0.109423
  H  H110  1  0.77531663  0.08692722  0.81607558  1 0.116505
  H  H111  1  0.79380373  0.31438672  0.18765983  1 0.110841
  H  H112  1  0.58989938  0.31567650  0.23529924  1 0.085716
  H  H113  1  0.62522362  0.34894902  0.16859403  1 0.136819
  H  H114  1  0.88685431  0.28911105  0.42605922  1 0.159607
  H  H115  1  0.88227404  0.98147485  0.26144364  1 0.117659
  H  H116  1  0.89027168  0.99817316  0.62624031  1 0.136857
  H  H117  1  0.88155097  0.19953967  0.26379614  1 0.114603
  H  H118  1  0.88738133  0.17738892  0.62923078  1 0.133003
  H  H119  1  0.88343969  0.89299345  0.42392025  1 0.161554
  H  H120  1  0.91046478  0.86572904  0.26207854  1 0.089347
  H  H121  1  0.87998271  0.83273334  0.33016357  1 0.149665
  H  H122  1  0.70848416  0.86585827  0.31287174  1 0.110131
  H  H123  1  0.90748142  0.12368789  0.73177311  1 0.105375
  H  H124  1  0.90603636  0.04891712  0.73011590  1 0.109437
  H  H125  1  0.72468345  0.08692720  0.68392405  1 0.116496
  H  H126  1  0.70619689  0.31438676  0.31233977  1 0.110857
  H  H127  1  0.91010118  0.31567669  0.26470094  1 0.085717
  H  H128  1  0.87477649  0.34894919  0.33140609  1 0.136798
  H  H129  1  0.11314522  0.21088904  0.42605899  1 0.159641
  H  H130  1  0.11772510  0.51852485  0.26144444  1 0.117683
  H  H131  1  0.10972938  0.50182686  0.62624129  1 0.136859
  H  H132  1  0.11844888  0.30046089  0.26379616  1 0.114631
  H  H133  1  0.11261436  0.32261129  0.62923133  1 0.132976
  H  H134  1  0.11656130  0.60700605  0.42392100  1 0.16156
  H  H135  1  0.08953574  0.63427094  0.26207922  1 0.089369
  H  H136  1  0.12001854  0.66726638  0.33016379  1 0.149662
  H  H137  1  0.29151663  0.63414032  0.31287152  1 0.110167
  H  H138  1  0.09251867  0.37631213  0.73177394  1 0.105381
  H  H139  1  0.09396386  0.45108284  0.73011673  1 0.10945
  H  H140  1  0.27531639  0.41307263  0.68392413  1 0.116501
  H  H141  1  0.29380319  0.18561403  0.31234038  1 0.110831
  H  H142  1  0.08989939  0.18432353  0.26470068  1 0.085725
  H  H143  1  0.12522334  0.15105113  0.33140587  1 0.136791
  C  C144  1  0.61482957  0.75433165  0.89402270  1 0.106444
  C  C145  1  0.61605337  0.47270059  0.80832669  1 0.044204
  C  C146  1  0.61397945  0.54220566  0.11248271  1 0.093489
  C  C147  1  0.61460621  0.70856912  0.81055126  1 0.044201
  C  C148  1  0.61532727  0.63437585  0.11386651  1 0.104594
  C  C149  1  0.61759026  0.42710816  0.89187084  1 0.116924
  C  C150  1  0.63810878  0.36726459  0.79968366  1 -0.074636
  C  C151  1  0.73764569  0.36573426  0.77844986  1 -0.117588
  C  C152  1  0.62710423  0.58690386  0.21204673  1 -0.054188
  C  C153  1  0.73103377  0.58721234  0.22329294  1 -0.11815
  C  C154  1  0.73880052  0.81405177  0.77864767  1 -0.113316
  C  C155  1  0.64014837  0.81347045  0.80138762  1 -0.070107
  C  C156  1  0.38516931  0.74566780  0.89402283  1 0.106563
  C  C157  1  0.38394650  0.02730035  0.80832663  1 0.044152
  C  C158  1  0.38602164  0.95779440  0.11248341  1 0.093501
  C  C159  1  0.38539333  0.79143045  0.81055138  1 0.044247
  C  C160  1  0.38467168  0.86562415  0.11386749  1 0.104578
  C  C161  1  0.38241034  0.07289314  0.89187073  1 0.11676
  C  C162  1  0.36189104  0.13273612  0.79968333  1 -0.074611
  C  C163  1  0.26235406  0.13426649  0.77844983  1 -0.117602
  C  C164  1  0.37289609  0.91309636  0.21204717  1 -0.05411
  C  C165  1  0.26896645  0.91278775  0.22329295  1 -0.118161
  C  C166  1  0.26119900  0.68594803  0.77864788  1 -0.113351
  C  C167  1  0.35985111  0.68652940  0.80138779  1 -0.070073
  C  C168  1  0.11483009  0.74566804  0.60597685  1 0.106496
  C  C169  1  0.11605313  0.02730004  0.69167289  1 0.044152
  C  C170  1  0.11397836  0.95779433  0.38751704  1 0.093478
  C  C171  1  0.11460635  0.79143072  0.68944820  1 0.044159
  C  C172  1  0.11532813  0.86562411  0.38613298  1 0.104645
  C  C173  1  0.11758931  0.07289295  0.60812892  1 0.116762
  C  C174  1  0.13810852  0.13273599  0.70031649  1 -0.074675
  C  C175  1  0.23764538  0.13426647  0.72155007  1 -0.117573
  C  C176  1  0.12710405  0.91309631  0.28795309  1 -0.054111
  C  C177  1  0.23103366  0.91278773  0.27670728  1 -0.118165
  C  C178  1  0.23880084  0.68594801  0.72135194  1 -0.113328
  C  C179  1  0.14014874  0.68652950  0.69861202  1 -0.070067
  C  C180  1  0.88517034  0.75433175  0.60597706  1 0.106496
  C  C181  1  0.88394629  0.47270053  0.69167319  1 0.04421
  C  C182  1  0.88602053  0.54220541  0.38751744  1 0.09349
  C  C183  1  0.88539357  0.70856919  0.68944850  1 0.044167
  C  C184  1  0.88467303  0.63437565  0.38613363  1 0.104678
  C  C185  1  0.88240955  0.42710806  0.60812902  1 0.116927
  C  C186  1  0.86189104  0.36726460  0.70031627  1 -0.074655
  C  C187  1  0.76235416  0.36573426  0.72155004  1 -0.11757
  C  C188  1  0.87289541  0.58690386  0.28795355  1 -0.054112
  C  C189  1  0.76896590  0.58721255  0.27670746  1 -0.118169
  C  C190  1  0.76119901  0.81405178  0.72135179  1 -0.11335
  C  C191  1  0.85985129  0.81347046  0.69861207  1 -0.070078
  C  C192  1  0.38517066  0.24566790  0.10597777  1 0.10648
  C  C193  1  0.38394660  0.52729943  0.19167342  1 0.044218
  C  C194  1  0.38602087  0.45779428  0.88751711  1 0.09347
  C  C195  1  0.38539378  0.29143054  0.18944913  1 0.044347
  C  C196  1  0.38467262  0.36562398  0.88613317  1 0.104623
  C  C197  1  0.38240985  0.57289185  0.10812926  1 0.116933
  C  C198  1  0.36189103  0.63273507  0.20031626  1 -0.074653
  C  C199  1  0.26235417  0.63426536  0.22155013  1 -0.117619
  C  C200  1  0.37289539  0.41309623  0.78795353  1 -0.054155
  C  C201  1  0.26896588  0.41278762  0.77670730  1 -0.118163
  C  C202  1  0.26119959  0.18594830  0.22135245  1 -0.113309
  C  C203  1  0.35985176  0.18652960  0.19861270  1 -0.070134
  C  C204  1  0.61483014  0.25433178  0.10597743  1 0.106452
  C  C205  1  0.61605377  0.97270013  0.19167400  1 0.044185
  C  C206  1  0.61397974  0.04220579  0.88751779  1 0.093492
  C  C207  1  0.61460679  0.20856942  0.18944897  1 0.044304
  C  C208  1  0.61532913  0.13437604  0.88613369  1 0.104591
  C  C209  1  0.61759031  0.92710757  0.10812986  1 0.116802
  C  C210  1  0.63810859  0.86726399  0.20031692  1 -0.07461
  C  C211  1  0.73764561  0.86573310  0.22155021  1 -0.117603
  C  C212  1  0.62710466  0.08690385  0.78795371  1 -0.054087
  C  C213  1  0.73103406  0.08721236  0.77670711  1 -0.118161
  C  C214  1  0.73880115  0.31405242  0.22135197  1 -0.113332
  C  C215  1  0.64014880  0.31347072  0.19861239  1 -0.070037
  C  C216  1  0.88516982  0.25433201  0.39402265  1 0.106575
  C  C217  1  0.88394634  0.97270009  0.30832604  1 0.044256
  C  C218  1  0.88602034  0.04220573  0.61248203  1 0.093433
  C  C219  1  0.88539326  0.20856969  0.31055106  1 0.044241
  C  C220  1  0.88467087  0.13437600  0.61386608  1 0.104619
  C  C221  1  0.88241003  0.92710762  0.39187026  1 0.116799
  C  C222  1  0.86189170  0.86726409  0.29968322  1 -0.074641
  C  C223  1  0.76235475  0.86573310  0.27844988  1 -0.117527
  C  C224  1  0.87289552  0.08690376  0.71204595  1 -0.054097
  C  C225  1  0.76896602  0.08721234  0.72329250  1 -0.118193
  C  C226  1  0.76119961  0.31405249  0.27864782  1 -0.113358
  C  C227  1  0.85985167  0.31347090  0.30138773  1 -0.070042
  C  C228  1  0.11482935  0.24566842  0.39402258  1 0.106473
  C  C229  1  0.11605329  0.52729942  0.30832691  1 0.044194
  C  C230  1  0.11397916  0.45779444  0.61248257  1 0.093468
  C  C231  1  0.11460621  0.29143097  0.31055122  1 0.044242
  C  C232  1  0.11532705  0.36562418  0.61386639  1 0.104603
  C  C233  1  0.11759018  0.57289188  0.39187104  1 0.116893
  C  C234  1  0.13810890  0.63273528  0.29968373  1 -0.074651
  C  C235  1  0.23764580  0.63426539  0.27844997  1 -0.117593
  C  C236  1  0.12710435  0.41309622  0.71204649  1 -0.054166
  C  C237  1  0.23103388  0.41278759  0.72329272  1 -0.118169
  C  C238  1  0.23880083  0.18594832  0.27864826  1 -0.11333
  C  C239  1  0.14014844  0.18652964  0.30138767  1 -0.070117
  S  S240  1  0.39497961  0.59183181  0.94198558  1 1.403681
  S  S241  1  0.60502067  0.90816754  0.94198680  1 1.403639
  S  S242  1  0.89497925  0.90816768  0.55801268  1 1.403755
  S  S243  1  0.10502006  0.59183146  0.55801416  1 1.403621
  S  S244  1  0.60502030  0.40816861  0.05801389  1 1.403638
  S  S245  1  0.39497948  0.09183173  0.05801598  1 1.403677
  S  S246  1  0.10501965  0.09183144  0.44198452  1 1.403708
  S  S247  1  0.89498047  0.40816826  0.44198661  1 1.403741
  S  S248  1  0.50000101  0.75000050  0.06980275  1 1.44151
  S  S249  1  0.99999869  0.75000052  0.43019771  1 1.441523
  S  S250  1  0.49999932  0.24999900  0.93019771  1 1.441618
  S  S251  1  0.00000120  0.24999933  0.56980223  1 1.441552
  N  N252  1  0.61840017  0.56043463  0.05774708  1 -0.150157
  N  N253  1  0.60352276  0.70034630  0.90574698  1 -0.152069
  N  N254  1  0.61112014  0.48138966  0.90364177  1 -0.150577
  N  N255  1  0.61861710  0.61798654  0.05842735  1 -0.157764
  N  N256  1  0.60284153  0.67115839  0.85296593  1 -0.154554
  N  N257  1  0.62188166  0.76113970  0.83430249  1 0.01897
  N  N258  1  0.60924269  0.51048909  0.85088629  1 -0.151228
  N  N259  1  0.62111185  0.41997999  0.83214678  1 0.017495
  N  N260  1  0.61077693  0.58790116  0.14896542  1 -0.011952
  N  N261  1  0.38159976  0.93956546  0.05774797  1 -0.150168
  N  N262  1  0.39647601  0.79965300  0.90574726  1 -0.152097
  N  N263  1  0.38888073  0.01861184  0.90364202  1 -0.150488
  N  N264  1  0.38138138  0.88201333  0.05842837  1 -0.157652
  N  N265  1  0.39715756  0.82884114  0.85296603  1 -0.154598
  N  N266  1  0.37811777  0.73885994  0.83430264  1 0.01888
  N  N267  1  0.39075773  0.98951209  0.85088633  1 -0.151269
  N  N268  1  0.37888809  0.08002100  0.83214663  1 0.017603
  N  N269  1  0.38922369  0.91209894  0.14896609  1 -0.012071
  N  N270  1  0.11839968  0.93956527  0.44225255  1 -0.150208
  N  N271  1  0.10352329  0.79965332  0.59425239  1 -0.152028
  N  N272  1  0.11111898  0.01861158  0.59635756  1 -0.150528
  N  N273  1  0.11861787  0.88201337  0.44157217  1 -0.157714
  N  N274  1  0.10284193  0.82884138  0.64703338  1 -0.154524
  N  N275  1  0.12188197  0.73886014  0.66569700  1 0.018885
  N  N276  1  0.10924205  0.98951190  0.64911302  1 -0.151284
  N  N277  1  0.12111161  0.08002081  0.66785300  1 0.017663
  N  N278  1  0.11077660  0.91209890  0.35103430  1 -0.012035
  N  N279  1  0.88160016  0.56043436  0.44225303  1 -0.150044
  N  N280  1  0.89647705  0.70034645  0.59425276  1 -0.1521
  N  N281  1  0.88887955  0.48138946  0.59635800  1 -0.15054
  N  N282  1  0.88138335  0.61798629  0.44157280  1 -0.157885
  N  N283  1  0.89715822  0.67115848  0.64703380  1 -0.154448
  N  N284  1  0.87811828  0.76113977  0.66569722  1 0.018928
  N  N285  1  0.89075683  0.51048894  0.64911348  1 -0.151284
  N  N286  1  0.87888796  0.41997993  0.66785307  1 0.01751
  N  N287  1  0.88922304  0.58790096  0.35103479  1 -0.011981
  N  N288  1  0.38160043  0.43956542  0.94225259  1 -0.150151
  N  N289  1  0.39647785  0.29965304  0.09425333  1 -0.152083
  N  N290  1  0.38888032  0.51861057  0.09635821  1 -0.150532
  N  N291  1  0.38138317  0.38201322  0.94157228  1 -0.157766
  N  N292  1  0.39715892  0.32884118  0.14703460  1 -0.154653
  N  N293  1  0.37811843  0.23886003  0.16569788  1 0.018941
  N  N294  1  0.39075757  0.48951099  0.14911396  1 -0.151271
  N  N295  1  0.37888809  0.58001995  0.16785322  1 0.017478
  N  N296  1  0.38922302  0.41209881  0.85103456  1 -0.011937
  N  N297  1  0.61840126  0.06043478  0.94225332  1 -0.150151
  N  N298  1  0.60352370  0.20034650  0.09425329  1 -0.151973
  N  N299  1  0.61112046  0.98138899  0.09635883  1 -0.150489
  N  N300  1  0.61861914  0.11798679  0.94157289  1 -0.157728
  N  N301  1  0.60284265  0.17115861  0.14703445  1 -0.154634
  N  N302  1  0.62188208  0.26113997  0.16569760  1 0.018755
  N  N303  1  0.60924314  0.01048852  0.14911441  1 -0.151327
  N  N304  1  0.62111203  0.91997949  0.16785391  1 0.017612
  N  N305  1  0.61077774  0.08790125  0.85103501  1 -0.01195
  N  N306  1  0.88159883  0.06043464  0.55774650  1 -0.150108
  N  N307  1  0.89647623  0.20034671  0.40574672  1 -0.15204
  N  N308  1  0.88887982  0.98138903  0.40364122  1 -0.150472
  N  N309  1  0.88138091  0.11798669  0.55842690  1 -0.15779
  N  N310  1  0.89715740  0.17115884  0.35296553  1 -0.154662
  N  N311  1  0.87811807  0.26114022  0.33430256  1 0.018876
  N  N312  1  0.89075704  0.01048855  0.35088565  1 -0.151352
  N  N313  1  0.87888814  0.91997955  0.33214621  1 0.017597
  N  N314  1  0.88922236  0.08790116  0.64896469  1 -0.011932
  N  N315  1  0.11840003  0.43956549  0.55774701  1 -0.150104
  N  N316  1  0.10352291  0.29965375  0.40574694  1 -0.152074
  N  N317  1  0.11112009  0.51861047  0.40364212  1 -0.150563
  N  N318  1  0.11861702  0.38201358  0.55842724  1 -0.15774
  N  N319  1  0.10284179  0.32884172  0.35296596  1 -0.154588
  N  N320  1  0.12188130  0.23886035  0.33430246  1 0.018916
  N  N321  1  0.10924269  0.48951103  0.35088664  1 -0.151205
  N  N322  1  0.12111169  0.58002004  0.33214702  1 0.017516
  N  N323  1  0.11077672  0.41209891  0.64896523  1 -0.011923
  O  O324  1  0.44162444  0.54675871  0.97979569  1 -0.730732
  O  O325  1  0.42769609  0.64669504  0.96577176  1 -0.664307
  O  O326  1  0.43069309  0.58425498  0.87935210  1 -0.682692
  O  O327  1  0.29307692  0.58556072  0.94330694  1 -0.678425
  O  O328  1  0.63665763  0.59185523  0.94238134  1 -0.842155
  O  O329  1  0.57821060  0.72843609  0.03151045  1 -0.679807
  O  O330  1  0.53968090  0.79536744  0.10740438  1 -0.719065
  O  O331  1  0.55837694  0.95324154  0.97979666  1 -0.730701
  O  O332  1  0.57230550  0.85330396  0.96577333  1 -0.664373
  O  O333  1  0.56930788  0.91574369  0.87935278  1 -0.682657
  O  O334  1  0.70692359  0.91443846  0.94330757  1 -0.67841
  O  O335  1  0.36334244  0.90814495  0.94238233  1 -0.842004
  O  O336  1  0.42178998  0.77156260  0.03151029  1 -0.679847
  O  O337  1  0.46032226  0.70463576  0.10740750  1 -0.71904
  O  O338  1  0.94162242  0.95324085  0.52020186  1 -0.73072
  O  O339  1  0.92769426  0.85330394  0.53422671  1 -0.664407
  O  O340  1  0.93069335  0.91574454  0.62064628  1 -0.682677
  O  O341  1  0.79307614  0.91443846  0.55669288  1 -0.678419
  O  O342  1  0.13665619  0.90814507  0.55761755  1 -0.842086
  O  O343  1  0.07820984  0.77156261  0.46849010  1 -0.67979
  O  O344  1  0.03967690  0.70463550  0.39259300  1 -0.719147
  O  O345  1  0.05837531  0.54675827  0.52020391  1 -0.730727
  O  O346  1  0.07230406  0.64669501  0.53422831  1 -0.664356
  O  O347  1  0.06930692  0.58425463  0.62064774  1 -0.682645
  O  O348  1  0.20692271  0.58556005  0.55669266  1 -0.678386
  O  O349  1  0.86334352  0.59185501  0.55761846  1 -0.842092
  O  O350  1  0.92178879  0.72843652  0.46849002  1 -0.679796
  O  O351  1  0.96031918  0.79536761  0.39259607  1 -0.71899
  O  O352  1  0.55837583  0.45324179  0.02020334  1 -0.730696
  O  O353  1  0.57230604  0.35330470  0.03422762  1 -0.664354
  O  O354  1  0.56930721  0.41574542  0.12064783  1 -0.682643
  O  O355  1  0.70692297  0.41444051  0.05669322  1 -0.678408
  O  O356  1  0.36334283  0.40814503  0.05761851  1 -0.842087
  O  O357  1  0.42178992  0.27156323  0.96849009  1 -0.679832
  O  O358  1  0.46031884  0.20463222  0.89259630  1 -0.719032
  O  O359  1  0.44162500  0.04675840  0.02020695  1 -0.730771
  O  O360  1  0.42769207  0.14669513  0.03422758  1 -0.664352
  O  O361  1  0.43069569  0.08425753  0.12064935  1 -0.682676
  O  O362  1  0.29307692  0.08555868  0.05669779  1 -0.678349
  O  O363  1  0.63665648  0.09185550  0.05761907  1 -0.842013
  O  O364  1  0.57821020  0.22843660  0.96849011  1 -0.679846
  O  O365  1  0.53967786  0.29536377  0.89259279  1 -0.719138
  O  O366  1  0.05837413  0.04675770  0.47979321  1 -0.730713
  O  O367  1  0.07230695  0.14669504  0.46577274  1 -0.664381
  O  O368  1  0.06930439  0.08425722  0.37935089  1 -0.68268
  O  O369  1  0.20692228  0.08555855  0.44330325  1 -0.678397
  O  O370  1  0.86334300  0.09185575  0.44238110  1 -0.842124
  O  O371  1  0.92179056  0.22843694  0.53150958  1 -0.67983
  O  O372  1  0.96032238  0.29536402  0.60740713  1 -0.71913
  O  O373  1  0.94162587  0.45324131  0.47979669  1 -0.730736
  O  O374  1  0.92769546  0.35330458  0.46577281  1 -0.664346
  O  O375  1  0.93069338  0.41574493  0.37935287  1 -0.682706
  O  O376  1  0.79307776  0.41444010  0.44330777  1 -0.67842
  O  O377  1  0.13665829  0.40814485  0.44238169  1 -0.842042
  O  O378  1  0.07821095  0.27156382  0.53151015  1 -0.679824
  O  O379  1  0.03968162  0.20463231  0.60740356  1 -0.71901
