# generated using pymatgen
data_MnCo3H48(C11O4)6
_symmetry_space_group_name_H-M   'P 1'
_cell_length_a   12.16511715
_cell_length_b   15.14941368
_cell_length_c   17.14411803
_cell_angle_alpha   108.80377999
_cell_angle_beta   99.71035627
_cell_angle_gamma   107.94132786
_symmetry_Int_Tables_number   1
_chemical_formula_structural   MnCo3H48(C11O4)6
_chemical_formula_sum   'Mn1 Co3 H48 C66 O24'
_cell_volume   2716.62144306
_cell_formula_units_Z   1
loop_
 _symmetry_equiv_pos_site_id
 _symmetry_equiv_pos_as_xyz
  1  'x, y, z'
loop_
 _atom_site_type_symbol
 _atom_site_label
 _atom_site_symmetry_multiplicity
 _atom_site_fract_x
 _atom_site_fract_y
 _atom_site_fract_z
 _atom_site_occupancy
 _atom_site_charge
  Mn  Mn0  1  0.50000217  0.50000180  0.50000039  1 1.105451
  Co  Co1  1  0.20737706  0.36611507  0.42080889  1 1.000196
  Co  Co2  1  0.79262411  0.63388598  0.57919144  1 1.000226
  Co  Co3  1  0.00000317  0.50000096  0.50000182  1 0.819128
  H  H4  1  0.20406294  0.63627492  0.66507638  1 0.099165
  H  H5  1  0.29969141  0.81020880  0.77620899  1 0.103195
  H  H6  1  0.55831492  0.88291005  0.63912330  1 0.125357
  H  H7  1  0.45804653  0.70676282  0.52634513  1 0.11371
  H  H8  1  0.16217152  0.18460851  0.57267497  1 0.114624
  H  H9  1  0.19947645  0.10138130  0.67387837  1 0.124039
  H  H10  1  0.57644609  0.12952024  0.78074232  1 0.079979
  H  H11  1  0.56731817  0.23953251  0.85567392  1 0.075654
  H  H12  1  0.68252860  0.09545690  0.89985027  1 0.081888
  H  H13  1  0.61785089  0.08854446  0.98512996  1 0.072681
  H  H14  1  0.76242958  0.41347158  0.09669844  1 0.123609
  H  H15  1  0.89393593  0.48524518  0.24932501  1 0.120533
  H  H16  1  0.94725418  0.20727070  0.20214426  1 0.118027
  H  H17  1  0.80920334  0.13230844  0.05256502  1 0.114172
  H  H18  1  0.34487827  0.13385958  0.89848939  1 0.079408
  H  H19  1  0.48337773  0.23166369  0.97333348  1 0.073302
  H  H20  1  0.58430681  0.26108098  0.73355474  1 0.114404
  H  H21  1  0.54579656  0.34211039  0.63286052  1 0.11724
  H  H22  1  0.55029416  0.39317730  0.24718771  1 0.115531
  H  H23  1  0.57209339  0.29273963  0.10813049  1 0.109445
  H  H24  1  0.24176536  0.04652787  0.06372891  1 0.111527
  H  H25  1  0.22013865  0.14930372  0.20386789  1 0.111899
  H  H26  1  0.34233050  0.97484892  0.80313110  1 0.081313
  H  H27  1  0.43837513  0.95366535  0.88048676  1 0.07753
  H  H28  1  0.79593742  0.36372592  0.33492491  1 0.099201
  H  H29  1  0.70030950  0.18979116  0.22379001  1 0.103193
  H  H30  1  0.44168428  0.11709006  0.36087842  1 0.125389
  H  H31  1  0.54195461  0.29323774  0.47365607  1 0.113729
  H  H32  1  0.83782819  0.81539264  0.42732541  1 0.114589
  H  H33  1  0.80052317  0.89861897  0.32612117  1 0.124036
  H  H34  1  0.42355377  0.87047929  0.21925753  1 0.079955
  H  H35  1  0.43268216  0.76046754  0.14432681  1 0.075654
  H  H36  1  0.31747005  0.90454291  0.10015005  1 0.081889
  H  H37  1  0.38214705  0.91145402  0.01486951  1 0.072649
  H  H38  1  0.23756912  0.58652695  0.90330139  1 0.123609
  H  H39  1  0.10606356  0.51475464  0.75067489  1 0.120545
  H  H40  1  0.05274532  0.79272837  0.79785543  1 0.118051
  H  H41  1  0.19079500  0.86769059  0.94743488  1 0.114202
  H  H42  1  0.65512007  0.86613958  0.10150905  1 0.079388
  H  H43  1  0.51662197  0.76833654  0.02666649  1 0.073322
  H  H44  1  0.41569291  0.73892031  0.26644445  1 0.114402
  H  H45  1  0.45420151  0.65789087  0.36713870  1 0.117248
  H  H46  1  0.44970740  0.60682270  0.75281291  1 0.11554
  H  H47  1  0.42790552  0.70726042  0.89186910  1 0.109438
  H  H48  1  0.75823500  0.95347294  0.93627093  1 0.111528
  H  H49  1  0.77986283  0.85069612  0.79613273  1 0.111898
  H  H50  1  0.65766897  0.02515079  0.19686841  1 0.081322
  H  H51  1  0.56162417  0.04633427  0.11951367  1 0.077533
  C  C52  1  0.32002516  0.66137990  0.58689518  1 -0.083036
  C  C53  1  0.27800050  0.69207860  0.65802519  1 -0.064267
  C  C54  1  0.33304399  0.78984758  0.72078431  1 -0.223075
  C  C55  1  0.47852630  0.82841235  0.64276903  1 -0.20008
  C  C56  1  0.42208535  0.73064863  0.58001255  1 -0.054905
  C  C57  1  0.50632770  0.10583716  0.88390844  1 0.042655
  C  C58  1  0.35193140  0.26883883  0.59691785  1 -0.070191
  C  C59  1  0.25396705  0.20057103  0.60837183  1 -0.066446
  C  C60  1  0.27408155  0.15468840  0.66431885  1 -0.213428
  C  C61  1  0.39305894  0.17730526  0.71060916  1 0.270904
  C  C62  1  0.52174008  0.15685939  0.82016991  1 -0.02211
  C  C63  1  0.63072235  0.12610191  0.94020456  1 -0.024475
  C  C64  1  0.77539981  0.26847111  0.06632727  1 0.266323
  C  C65  1  0.80335011  0.36918249  0.12103789  1 -0.209174
  C  C66  1  0.87712386  0.40890735  0.20529324  1 -0.062599
  C  C67  1  0.92822714  0.35011589  0.23548036  1 -0.068342
  C  C68  1  0.90566364  0.25173059  0.17865509  1 -0.057223
  C  C69  1  0.82837814  0.20990789  0.09477772  1 -0.232474
  C  C70  1  0.43432202  0.14935179  0.93963528  1 -0.020317
  C  C71  1  0.49171541  0.24407432  0.69899347  1 -0.237393
  C  C72  1  0.47023927  0.28922330  0.64209749  1 -0.058962
  C  C73  1  0.36859072  0.33739425  0.31636544  1 0.599429
  C  C74  1  0.38307021  0.27763335  0.23348438  1 -0.058723
  C  C75  1  0.48203257  0.31783010  0.20610939  1 -0.056341
  C  C76  1  0.49380384  0.26164921  0.12816721  1 -0.216672
  C  C77  1  0.40691843  0.16397376  0.07734337  1 0.257704
  C  C78  1  0.30859566  0.12254851  0.10450695  1 -0.207879
  C  C79  1  0.29679329  0.17959880  0.18199952  1 -0.065161
  C  C80  1  0.43357997  0.85850593  0.71293730  1 0.280879
  C  C81  1  0.43702736  0.99148319  0.83536920  1 -0.02123
  C  C82  1  0.99535245  0.38594831  0.32798732  1 0.581509
  C  C83  1  0.26225163  0.55550607  0.52620337  1 0.593178
  C  C84  1  0.33030854  0.31893729  0.53802877  1 0.592498
  C  C85  1  0.67997536  0.33861902  0.41310547  1 -0.082944
  C  C86  1  0.72199990  0.30792108  0.34197528  1 -0.064344
  C  C87  1  0.66695544  0.21015238  0.27921606  1 -0.223053
  C  C88  1  0.52147396  0.17158717  0.35723091  1 -0.200199
  C  C89  1  0.57791576  0.26935065  0.41998778  1 -0.054913
  C  C90  1  0.49367223  0.89416201  0.11609074  1 0.042621
  C  C91  1  0.64806811  0.73116232  0.40308257  1 -0.070209
  C  C92  1  0.74603159  0.79942976  0.39162814  1 -0.066361
  C  C93  1  0.72591721  0.84531190  0.33568104  1 -0.213456
  C  C94  1  0.60693952  0.82269495  0.28939077  1 0.27094
  C  C95  1  0.47825801  0.84314073  0.17982804  1 -0.022081
  C  C96  1  0.36927729  0.87389812  0.05979563  1 -0.02443
  C  C97  1  0.22459662  0.73152666  0.93367250  1 0.266266
  C  C98  1  0.19664787  0.63081592  0.87896239  1 -0.209149
  C  C99  1  0.12287525  0.59109215  0.79470688  1 -0.06262
  C  C100  1  0.07177160  0.64988271  0.76451823  1 -0.068262
  C  C101  1  0.09433494  0.74826799  0.82134423  1 -0.057294
  C  C102  1  0.17161956  0.79009075  0.90522250  1 -0.232467
  C  C103  1  0.56567628  0.85064698  0.06036526  1 -0.02032
  C  C104  1  0.50828507  0.75592665  0.30100721  1 -0.237384
  C  C105  1  0.52976052  0.71077740  0.35790318  1 -0.059011
  C  C106  1  0.63141499  0.66260978  0.68363714  1 0.599405
  C  C107  1  0.61693210  0.72236753  0.76651599  1 -0.058791
  C  C108  1  0.51796869  0.68216867  0.79388866  1 -0.05636
  C  C109  1  0.50619762  0.73834956  0.87183156  1 -0.21665
  C  C110  1  0.59308049  0.83602480  0.92265734  1 0.257661
  C  C111  1  0.69140426  0.87745061  0.89549393  1 -0.207828
  C  C112  1  0.70320715  0.82040099  0.81800052  1 -0.065138
  C  C113  1  0.56641977  0.14149427  0.28706244  1 0.280896
  C  C114  1  0.56297211  0.00851505  0.16462994  1 -0.021187
  C  C115  1  0.00464855  0.61405248  0.67201351  1 0.581459
  C  C116  1  0.73774885  0.44449238  0.47379680  1 0.593096
  C  C117  1  0.66969361  0.68106531  0.46197037  1 0.592555
  O  O118  1  0.31917447  0.51437456  0.47810638  1 -0.56792
  O  O119  1  0.42035098  0.36988148  0.52036012  1 -0.583663
  O  O120  1  0.98784123  0.46484788  0.38108080  1 -0.520438
  O  O121  1  0.40343314  0.13087535  0.76616270  1 -0.199014
  O  O122  1  0.69367316  0.23363493  0.98726429  1 -0.210064
  O  O123  1  0.04821589  0.33198165  0.34774382  1 -0.56679
  O  O124  1  0.22096414  0.30771509  0.50641791  1 -0.55378
  O  O125  1  0.45621462  0.41931244  0.36802264  1 -0.559329
  O  O126  1  0.26630100  0.30102418  0.32906024  1 -0.569189
  O  O127  1  0.15640824  0.49637684  0.52043633  1 -0.53788
  O  O128  1  0.41688948  0.10372807  0.00092618  1 -0.239465
  O  O129  1  0.49364676  0.95580298  0.77178337  1 -0.203817
  O  O130  1  0.68082602  0.48562587  0.52189289  1 -0.567912
  O  O131  1  0.57965039  0.63011900  0.47963858  1 -0.583685
  O  O132  1  0.01215954  0.53515174  0.61891919  1 -0.520408
  O  O133  1  0.59656644  0.86912497  0.23383777  1 -0.199026
  O  O134  1  0.30632420  0.76636338  0.01273610  1 -0.210044
  O  O135  1  0.95178646  0.66801846  0.65225527  1 -0.566793
  O  O136  1  0.77903638  0.69228885  0.49358167  1 -0.553781
  O  O137  1  0.54378982  0.58069025  0.63197790  1 -0.559302
  O  O138  1  0.73370013  0.69897680  0.67093960  1 -0.569185
  O  O139  1  0.84359209  0.50362201  0.47956240  1 -0.537822
  O  O140  1  0.58311037  0.89627157  0.99907330  1 -0.23943
  O  O141  1  0.50635319  0.04419747  0.22821789  1 -0.203825
