# generated using pymatgen
data_ZnH15C21N2O5
_symmetry_space_group_name_H-M   'P 1'
_cell_length_a   26.95393450
_cell_length_b   8.05764978
_cell_length_c   23.81997361
_cell_angle_alpha   90.00000695
_cell_angle_beta   99.78403791
_cell_angle_gamma   90.00000088
_symmetry_Int_Tables_number   1
_chemical_formula_structural   ZnH15C21N2O5
_chemical_formula_sum   'Zn8 H120 C168 N16 O40'
_cell_volume   5098.10472145
_cell_formula_units_Z   8
loop_
 _symmetry_equiv_pos_site_id
 _symmetry_equiv_pos_as_xyz
  1  'x, y, z'
loop_
 _atom_site_type_symbol
 _atom_site_label
 _atom_site_symmetry_multiplicity
 _atom_site_fract_x
 _atom_site_fract_y
 _atom_site_fract_z
 _atom_site_occupancy
 _atom_site_charge
  Zn  Zn0  1  0.03872317  0.12149129  0.00198921  1 0.820487
  Zn  Zn1  1  0.53872316  0.62149093  0.00198933  1 0.820492
  Zn  Zn2  1  0.96127684  0.12149111  0.49801068  1 0.8205
  Zn  Zn3  1  0.46127685  0.62149101  0.49801072  1 0.820496
  Zn  Zn4  1  0.96127684  0.87850902  0.99801065  1 0.820489
  Zn  Zn5  1  0.46127683  0.37850866  0.99801078  1 0.820504
  Zn  Zn6  1  0.03872320  0.87850907  0.50198928  1 0.820492
  Zn  Zn7  1  0.53872316  0.37850888  0.50198935  1 0.820504
  H  H8  1  0.86288055  0.12153759  0.10397977  1 0.107634
  H  H9  1  0.82237002  0.31103712  0.16694378  1 0.123359
  H  H10  1  0.93032891  0.69192662  0.14654820  1 0.132324
  H  H11  1  0.96941947  0.50389051  0.08393795  1 0.108994
  H  H12  1  0.82763057  0.87822338  0.24386308  1 0.122009
  H  H13  1  0.87429718  0.99581886  0.33549344  1 0.111744
  H  H14  1  0.98235540  0.60158178  0.34394202  1 0.101016
  H  H15  1  0.93662378  0.48290517  0.25385294  1 0.123874
  H  H16  1  0.13820681  0.17564049  0.96612851  1 0.100349
  H  H17  1  0.20232384  0.40501829  0.97302552  1 0.115693
  H  H18  1  0.11312415  0.67043476  0.07827036  1 0.112304
  H  H19  1  0.05261801  0.43565562  0.06484734  1 0.099178
  H  H20  1  0.19648015  0.82249354  0.10824788  1 0.146462
  H  H21  1  0.14893040  0.89076190  0.05283876  1 0.157117
  H  H22  1  0.21287849  0.95377067  0.05384519  1 0.139274
  H  H23  1  0.36288032  0.62153713  0.10397986  1 0.107613
  H  H24  1  0.32236987  0.81103705  0.16694380  1 0.123351
  H  H25  1  0.43032886  0.19192594  0.14654823  1 0.132312
  H  H26  1  0.46941943  0.00388960  0.08393810  1 0.109018
  H  H27  1  0.32763055  0.37822352  0.24386314  1 0.122011
  H  H28  1  0.37429719  0.49581897  0.33549348  1 0.111745
  H  H29  1  0.48235528  0.10158188  0.34394191  1 0.101016
  H  H30  1  0.43662371  -0.01709481  0.25385291  1 0.123876
  H  H31  1  0.63820683  0.67564039  0.96612856  1 0.100346
  H  H32  1  0.70232384  0.90501823  0.97302557  1 0.115696
  H  H33  1  0.61312409  0.17043469  0.07827034  1 0.11231
  H  H34  1  0.55261796  0.93565557  0.06484732  1 0.099175
  H  H35  1  0.69648015  0.32249364  0.10824787  1 0.146464
  H  H36  1  0.64893039  0.39076196  0.05283875  1 0.157111
  H  H37  1  0.71287848  0.45377069  0.05384517  1 0.139274
  H  H38  1  0.13711959  0.12153740  0.39602019  1 0.107625
  H  H39  1  0.17763009  0.31103704  0.33305620  1 0.123358
  H  H40  1  0.06967113  0.69192640  0.35345170  1 0.13231
  H  H41  1  0.03058055  0.50388992  0.41606189  1 0.109016
  H  H42  1  0.17236941  0.87822344  0.25613684  1 0.122008
  H  H43  1  0.12570284  0.99581884  0.16450648  1 0.111765
  H  H44  1  0.01764462  0.60158187  0.15605805  1 0.101008
  H  H45  1  0.06337621  0.48290516  0.24614706  1 0.123876
  H  H46  1  0.86179317  0.17564042  0.53387145  1 0.100346
  H  H47  1  0.79767617  0.40501821  0.52697446  1 0.115694
  H  H48  1  0.88687591  0.67043473  0.42172969  1 0.112306
  H  H49  1  0.94738202  0.43565555  0.43515269  1 0.09918
  H  H50  1  0.80351983  0.82249354  0.39175213  1 0.146465
  H  H51  1  0.85106960  0.89076197  0.44716124  1 0.157111
  H  H52  1  0.78712150  0.95377068  0.44615482  1 0.139279
  H  H53  1  0.63711966  0.62153747  0.39602018  1 0.107631
  H  H54  1  0.67763016  0.81103714  0.33305623  1 0.123355
  H  H55  1  0.56967117  0.19192632  0.35345174  1 0.132297
  H  H56  1  0.53058056  0.00388985  0.41606189  1 0.109003
  H  H57  1  0.67236947  0.37822359  0.25613686  1 0.122012
  H  H58  1  0.62570278  0.49581888  0.16450652  1 0.111743
  H  H59  1  0.51764459  0.10158172  0.15605805  1 0.101017
  H  H60  1  0.56337629  -0.01709474  0.24614708  1 0.123876
  H  H61  1  0.36179317  0.67564039  0.53387149  1 0.100347
  H  H62  1  0.29767618  0.90501823  0.52697449  1 0.115694
  H  H63  1  0.38687591  0.17043467  0.42172969  1 0.112307
  H  H64  1  0.44738202  0.93565547  0.43515272  1 0.09918
  H  H65  1  0.30351986  0.32249356  0.39175214  1 0.146464
  H  H66  1  0.35106960  0.39076196  0.44716126  1 0.157119
  H  H67  1  0.28712151  0.45377066  0.44615484  1 0.139276
  H  H68  1  0.13711967  0.87846282  0.89602017  1 0.107615
  H  H69  1  0.17763011  0.68896291  0.83305623  1 0.123353
  H  H70  1  0.06967113  0.30807402  0.85345180  1 0.132311
  H  H71  1  0.03058057  0.49611038  0.91606191  1 0.109017
  H  H72  1  0.17236944  0.12177658  0.75613689  1 0.122007
  H  H73  1  0.12570282  0.00418104  0.66450654  1 0.111745
  H  H74  1  0.01764468  0.39841811  0.65605809  1 0.101014
  H  H75  1  0.06337625  0.51709481  0.74614710  1 0.123874
  H  H76  1  0.86179314  0.82435966  0.03387149  1 0.100343
  H  H77  1  0.79767614  0.59498181  0.02697446  1 0.115692
  H  H78  1  0.88687590  0.32956541  0.92172968  1 0.112306
  H  H79  1  0.94738203  0.56434457  0.93515273  1 0.099182
  H  H80  1  0.80351983  0.17750643  0.89175213  1 0.146465
  H  H81  1  0.85106959  0.10923808  0.94716124  1 0.157112
  H  H82  1  0.78712149  0.04622935  0.94615483  1 0.13928
  H  H83  1  0.63711960  0.37846259  0.89602017  1 0.10763
  H  H84  1  0.67763013  0.18896301  0.83305623  1 0.123357
  H  H85  1  0.56967117  0.80807369  0.85345175  1 0.1323
  H  H86  1  0.53058053  -0.00388988  0.91606190  1 0.109004
  H  H87  1  0.67236943  0.62177651  0.75613688  1 0.122005
  H  H88  1  0.62570277  0.50418121  0.66450653  1 0.111741
  H  H89  1  0.51764460  0.89841833  0.65605806  1 0.101016
  H  H90  1  0.56337626  0.01709485  0.74614711  1 0.123875
  H  H91  1  0.36179309  0.32435961  0.03387143  1 0.100348
  H  H92  1  0.29767610  0.09498168  0.02697444  1 0.115691
  H  H93  1  0.38687586  0.82956532  0.92172964  1 0.112306
  H  H94  1  0.44738196  0.06434455  0.93515268  1 0.099179
  H  H95  1  0.30351984  0.67750638  0.89175212  1 0.146463
  H  H96  1  0.35106959  0.60923803  0.94716124  1 0.157117
  H  H97  1  0.28712150  0.54622929  0.94615481  1 0.139273
  H  H98  1  0.86288054  0.87846238  0.60397978  1 0.107639
  H  H99  1  0.82237000  0.68896278  0.66694378  1 0.123355
  H  H100  1  0.93032892  0.30807334  0.64654816  1 0.132319
  H  H101  1  0.96941946  0.49610958  0.58393795  1 0.108992
  H  H102  1  0.82763054  0.12177648  0.74386306  1 0.122012
  H  H103  1  0.87429716  0.00418111  0.83549342  1 0.111742
  H  H104  1  0.98235539  0.39841816  0.84394203  1 0.101018
  H  H105  1  0.93662377  0.51709473  0.75385294  1 0.123873
  H  H106  1  0.13820683  0.82435960  0.46612856  1 0.10035
  H  H107  1  0.20232383  0.59498180  0.47302553  1 0.115694
  H  H108  1  0.11312412  0.32956530  0.57827034  1 0.112306
  H  H109  1  0.05261799  0.56434443  0.56484731  1 0.099176
  H  H110  1  0.19648015  0.17750640  0.60824789  1 0.146463
  H  H111  1  0.14893041  0.10923803  0.55283876  1 0.157116
  H  H112  1  0.21287850  0.04622935  0.55384519  1 0.139279
  H  H113  1  0.36288036  0.37846272  0.60397983  1 0.107617
  H  H114  1  0.32236987  0.18896302  0.66694379  1 0.123354
  H  H115  1  0.43032882  0.80807364  0.64654828  1 0.132312
  H  H116  1  0.46941940  -0.00388980  0.58393814  1 0.10902
  H  H117  1  0.32763055  0.62177651  0.74386314  1 0.122006
  H  H118  1  0.37429717  0.50418090  0.83549345  1 0.111745
  H  H119  1  0.48235531  0.89841807  0.84394197  1 0.101012
  H  H120  1  0.43662373  0.01709483  0.75385296  1 0.123879
  H  H121  1  0.63820682  0.32435962  0.46612857  1 0.100346
  H  H122  1  0.70232382  0.09498180  0.47302554  1 0.115695
  H  H123  1  0.61312409  0.82956530  0.57827032  1 0.112311
  H  H124  1  0.55261798  0.06434444  0.56484733  1 0.099175
  H  H125  1  0.69648015  0.67750643  0.60824788  1 0.146464
  H  H126  1  0.64893038  0.60923806  0.55283876  1 0.157111
  H  H127  1  0.71287848  0.54622931  0.55384517  1 0.139275
  C  C128  1  0.94502318  0.18754728  0.05518141  1 0.58696
  C  C129  1  0.91936187  0.29986687  0.09119741  1 -0.05838
  C  C130  1  0.87735324  0.24628400  0.11368621  1 -0.066525
  C  C131  1  0.85480580  0.35083556  0.14858437  1 -0.198998
  C  C132  1  0.87457437  0.50945586  0.16067751  1 0.256591
  C  C133  1  0.91586002  0.56642582  0.13779824  1 -0.206103
  C  C134  1  0.93797846  0.46061875  0.10321182  1 -0.072626
  C  C135  1  0.87940462  0.67482098  0.24366575  1 0.270252
  C  C136  1  0.86163035  0.81899854  0.26642781  1 -0.21172
  C  C137  1  0.88756004  0.88373052  0.31714592  1 -0.072682
  C  C138  1  0.93136928  0.80617432  0.34564663  1 -0.072377
  C  C139  1  0.94863211  0.66261404  0.32194018  1 -0.064229
  C  C140  1  0.92306299  0.59580392  0.27138630  1 -0.214362
  C  C141  1  0.95813242  0.87308754  0.40128483  1 0.57809
  C  C142  1  0.13477528  0.28852549  0.99043743  1 0.094533
  C  C143  1  0.17007429  0.41464746  0.99478053  1 -0.152649
  C  C144  1  0.16295199  0.55885004  0.02582749  1 0.06436
  C  C145  1  0.12070355  0.56432025  0.05291096  1 -0.150783
  C  C146  1  0.08678978  0.43349840  0.04614291  1 0.107386
  C  C147  1  0.19765548  0.70167787  0.02838052  1 0.274
  C  C148  1  0.18852785  0.85168907  0.06239894  1 -0.461357
  C  C149  1  0.44502389  0.68754875  0.05518164  1 0.5869
  C  C150  1  0.41936157  0.79986574  0.09119751  1 -0.058389
  C  C151  1  0.37735302  0.74628376  0.11368635  1 -0.066427
  C  C152  1  0.35480562  0.85083515  0.14858444  1 -0.19903
  C  C153  1  0.37457437  0.00945566  0.16067748  1 0.256637
  C  C154  1  0.41585986  0.06642502  0.13779825  1 -0.206115
  C  C155  1  0.43797853  0.96061858  0.10321182  1 -0.072604
  C  C156  1  0.37940460  0.17482082  0.24366574  1 0.27027
  C  C157  1  0.36163025  0.31899873  0.26642781  1 -0.211725
  C  C158  1  0.38756006  0.38373032  0.31714591  1 -0.072675
  C  C159  1  0.43136914  0.30617463  0.34564662  1 -0.072375
  C  C160  1  0.44863207  0.16261379  0.32194020  1 -0.064226
  C  C161  1  0.42306285  0.09580403  0.27138626  1 -0.214369
  C  C162  1  0.45813296  0.37308588  0.40128485  1 0.578047
  C  C163  1  0.63477526  0.78852539  0.99043745  1 0.094538
  C  C164  1  0.67007427  0.91464749  0.99478057  1 -0.152649
  C  C165  1  0.66295199  0.05884999  0.02582748  1 0.064347
  C  C166  1  0.62070348  0.06432023  0.05291097  1 -0.150778
  C  C167  1  0.58678977  0.93349824  0.04614285  1 0.107415
  C  C168  1  0.69765547  0.20167793  0.02838054  1 0.274
  C  C169  1  0.68852785  0.35168910  0.06239894  1 -0.46136
  C  C170  1  0.05497611  0.18754935  0.44481843  1 0.586934
  C  C171  1  0.08063832  0.29986625  0.40880246  1 -0.058407
  C  C172  1  0.12264679  0.24628433  0.38631370  1 -0.066421
  C  C173  1  0.14519430  0.35083516  0.35141558  1 -0.199038
  C  C174  1  0.12542559  0.50945577  0.33932246  1 0.256604
  C  C175  1  0.08414012  0.56642536  0.36220169  1 -0.206146
  C  C176  1  0.06202144  0.46061895  0.39678812  1 -0.072605
  C  C177  1  0.12059534  0.67482063  0.25633420  1 0.270253
  C  C178  1  0.13836973  0.81899858  0.23357212  1 -0.21171
  C  C179  1  0.11243989  0.88373011  0.18285405  1 -0.072701
  C  C180  1  0.06863082  0.80617459  0.15435326  1 -0.072366
  C  C181  1  0.05136783  0.66261364  0.17805973  1 -0.064227
  C  C182  1  0.07693709  0.59580400  0.22861370  1 -0.214366
  C  C183  1  0.04186686  0.87308558  0.09871502  1 0.578054
  C  C184  1  0.86522474  0.28852541  0.50956255  1 0.094535
  C  C185  1  0.82992572  0.41464746  0.50521945  1 -0.152647
  C  C186  1  0.83704802  0.55884999  0.47417253  1 0.064362
  C  C187  1  0.87929650  0.56432024  0.44708906  1 -0.150778
  C  C188  1  0.91321022  0.43349829  0.45385713  1 0.107387
  C  C189  1  0.80234453  0.70167789  0.47161949  1 0.274003
  C  C190  1  0.81147214  0.85168906  0.43760107  1 -0.461364
  C  C191  1  0.55497676  0.68754744  0.44481854  1 0.586963
  C  C192  1  0.58063828  0.79986639  0.40880252  1 -0.058403
  C  C193  1  0.62264690  0.74628406  0.38631373  1 -0.066479
  C  C194  1  0.64519432  0.85083540  0.35141559  1 -0.199018
  C  C195  1  0.62542570  0.00945563  0.33932247  1 0.256582
  C  C196  1  0.58414011  0.06642538  0.36220172  1 -0.206068
  C  C197  1  0.56202154  0.96061854  0.39678813  1 -0.072636
  C  C198  1  0.62059543  0.17482104  0.25633423  1 0.270254
  C  C199  1  0.63836970  0.31899855  0.23357220  1 -0.21173
  C  C200  1  0.61244000  0.38373058  0.18285410  1 -0.072678
  C  C201  1  0.56863072  0.30617428  0.15435338  1 -0.072382
  C  C202  1  0.55136792  0.16261409  0.17805984  1 -0.064226
  C  C203  1  0.57693705  0.09580390  0.22861371  1 -0.214363
  C  C204  1  0.54186776  0.37308783  0.09871523  1 0.578094
  C  C205  1  0.36522474  0.78852541  0.50956258  1 0.094537
  C  C206  1  0.32992573  0.91464742  0.50521949  1 -0.152648
  C  C207  1  0.33704804  0.05885002  0.47417254  1 0.064358
  C  C208  1  0.37929649  0.06432016  0.44708909  1 -0.150775
  C  C209  1  0.41321025  0.93349827  0.45385713  1 0.107363
  C  C210  1  0.30234454  0.20167786  0.47161951  1 0.273988
  C  C211  1  0.31147215  0.35168907  0.43760109  1 -0.461372
  C  C212  1  0.05497598  0.81245084  0.94481838  1 0.58696
  C  C213  1  0.08063843  0.70013405  0.90880247  1 -0.058396
  C  C214  1  0.12264698  0.75371623  0.88631367  1 -0.066425
  C  C215  1  0.14519436  0.64916486  0.85141559  1 -0.199031
  C  C216  1  0.12542561  0.49054434  0.83932253  1 0.256636
  C  C217  1  0.08414013  0.43357493  0.86220176  1 -0.206117
  C  C218  1  0.06202145  0.53938128  0.89678817  1 -0.072608
  C  C219  1  0.12059537  0.32517919  0.75633425  1 0.270268
  C  C220  1  0.13836973  0.18100133  0.73357220  1 -0.211718
  C  C221  1  0.11243993  0.11626966  0.68285411  1 -0.072677
  C  C222  1  0.06863084  0.19382536  0.65435340  1 -0.072373
  C  C223  1  0.05136789  0.33738618  0.67805981  1 -0.064227
  C  C224  1  0.07693711  0.40419599  0.72861374  1 -0.214369
  C  C225  1  0.04186705  0.12691404  0.59871515  1 0.578044
  C  C226  1  0.86522471  0.71147470  0.00956258  1 0.094536
  C  C227  1  0.82992570  0.58535255  0.00521945  1 -0.152648
  C  C228  1  0.83704799  0.44115009  0.97417253  1 0.064362
  C  C229  1  0.87929649  0.43567984  0.94708905  1 -0.150771
  C  C230  1  0.91321021  0.56650187  0.95385717  1 0.107381
  C  C231  1  0.80234452  0.29832213  0.97161947  1 0.274003
  C  C232  1  0.81147213  0.14831096  0.93760107  1 -0.461365
  C  C233  1  0.55497686  0.31245295  0.94481856  1 0.58696
  C  C234  1  0.58063822  0.20013351  0.90880254  1 -0.058375
  C  C235  1  0.62264687  0.25371609  0.88631373  1 -0.06648
  C  C236  1  0.64519428  0.14916467  0.85141559  1 -0.199019
  C  C237  1  0.62542570  0.99054449  0.83932249  1 0.256591
  C  C238  1  0.58414008  0.93357461  0.86220174  1 -0.206088
  C  C239  1  0.56202153  0.03938151  0.89678812  1 -0.072649
  C  C240  1  0.62059542  0.82517913  0.75633424  1 0.270308
  C  C241  1  0.63836967  0.68100153  0.73357219  1 -0.21175
  C  C242  1  0.61243995  0.61626953  0.68285409  1 -0.072675
  C  C243  1  0.56863070  0.69382577  0.65435339  1 -0.072372
  C  C244  1  0.55136791  0.83738602  0.67805986  1 -0.064224
  C  C245  1  0.57693704  0.90419617  0.72861372  1 -0.214379
  C  C246  1  0.54186758  0.62691251  0.59871519  1 0.5781
  C  C247  1  0.36522465  0.21147459  0.00956255  1 0.094532
  C  C248  1  0.32992567  0.08535256  0.00521944  1 -0.152651
  C  C249  1  0.33704800  0.94114997  0.97417251  1 0.064359
  C  C250  1  0.37929644  0.93567975  0.94708908  1 -0.150779
  C  C251  1  0.41321020  0.06650167  0.95385710  1 0.107379
  C  C252  1  0.30234452  0.79832208  0.97161948  1 0.274
  C  C253  1  0.31147214  0.64831088  0.93760106  1 -0.461358
  C  C254  1  0.94502336  0.81245229  0.55518144  1 0.586902
  C  C255  1  0.91936182  0.70013328  0.59119745  1 -0.058348
  C  C256  1  0.87735325  0.75371582  0.61368623  1 -0.066539
  C  C257  1  0.85480577  0.64916442  0.64858436  1 -0.198985
  C  C258  1  0.87457439  0.49054398  0.66067749  1 0.25662
  C  C259  1  0.91585999  0.43357418  0.63779822  1 -0.206077
  C  C260  1  0.93797849  0.53938118  0.60321181  1 -0.072631
  C  C261  1  0.87940461  0.32517887  0.74366574  1 0.270277
  C  C262  1  0.86163032  0.18100143  0.76642776  1 -0.211728
  C  C263  1  0.88755998  0.11626936  0.81714587  1 -0.07268
  C  C264  1  0.93136925  0.19382570  0.84564660  1 -0.07238
  C  C265  1  0.94863207  0.33738586  0.82194018  1 -0.064227
  C  C266  1  0.92306299  0.40419605  0.77138629  1 -0.214366
  C  C267  1  0.95813220  0.12691200  0.90128476  1 0.578094
  C  C268  1  0.13477527  0.71147457  0.49043746  1 0.094532
  C  C269  1  0.17007428  0.58535259  0.49478054  1 -0.152649
  C  C270  1  0.16295197  0.44115000  0.52582749  1 0.064361
  C  C271  1  0.12070353  0.43567979  0.55291095  1 -0.150783
  C  C272  1  0.08678975  0.56650169  0.54614290  1 0.107387
  C  C273  1  0.19765548  0.29832213  0.52838054  1 0.274002
  C  C274  1  0.18852785  0.14831093  0.56239894  1 -0.461364
  C  C275  1  0.44502390  0.31245064  0.55518161  1 0.586929
  C  C276  1  0.41936164  0.20013388  0.59119756  1 -0.058399
  C  C277  1  0.37735310  0.25371617  0.61368634  1 -0.066421
  C  C278  1  0.35480565  0.14916491  0.64858444  1 -0.199038
  C  C279  1  0.37457435  0.99054426  0.66067756  1 0.256605
  C  C280  1  0.41585982  0.93357474  0.63779832  1 -0.206144
  C  C281  1  0.43797852  0.03938113  0.60321191  1 -0.072605
  C  C282  1  0.37940463  0.82517925  0.74366579  1 0.270255
  C  C283  1  0.36163026  0.68100122  0.76642783  1 -0.211714
  C  C284  1  0.38756010  0.61626966  0.81714593  1 -0.072677
  C  C285  1  0.43136919  0.69382519  0.84564669  1 -0.072372
  C  C286  1  0.44863212  0.83738621  0.82194025  1 -0.064225
  C  C287  1  0.42306286  0.90419594  0.77138631  1 -0.214366
  C  C288  1  0.45813313  0.62691423  0.90128496  1 0.578057
  C  C289  1  0.63477526  0.21147460  0.49043747  1 0.094535
  C  C290  1  0.67007427  0.08535253  0.49478055  1 -0.152649
  C  C291  1  0.66295198  0.94115001  0.52582747  1 0.064346
  C  C292  1  0.62070350  0.93567976  0.55291095  1 -0.15078
  C  C293  1  0.58678977  0.06650173  0.54614288  1 0.107416
  C  C294  1  0.69765546  0.79832210  0.52838053  1 0.273999
  C  C295  1  0.68852784  0.64831092  0.56239893  1 -0.461359
  N  N296  1  0.09332213  0.29863213  0.01501052  1 -0.208181
  N  N297  1  0.23410171  0.68323229  0.99912654  1 -0.21442
  N  N298  1  0.59332210  0.79863214  0.01501054  1 -0.208199
  N  N299  1  0.73410173  0.18323233  0.99912655  1 -0.214415
  N  N300  1  0.90667787  0.29863211  0.48498946  1 -0.208191
  N  N301  1  0.76589828  0.68323232  0.50087348  1 -0.21442
  N  N302  1  0.40667787  0.79863198  0.48498951  1 -0.208171
  N  N303  1  0.26589829  0.18323234  0.50087348  1 -0.214392
  N  N304  1  0.90667787  0.70136797  0.98498949  1 -0.208186
  N  N305  1  0.76589826  0.31676772  0.00087347  1 -0.214413
  N  N306  1  0.40667782  0.20136797  0.98498948  1 -0.208176
  N  N307  1  0.26589828  0.81676766  0.00087346  1 -0.21441
  N  N308  1  0.09332214  0.70136798  0.51501053  1 -0.208184
  N  N309  1  0.23410174  0.31676767  0.49912657  1 -0.214415
  N  N310  1  0.59332213  0.20136787  0.51501056  1 -0.2082
  N  N311  1  0.73410173  0.81676769  0.49912656  1 -0.214407
  O  O312  1  0.98617505  0.23932926  0.04187991  1 -0.552723
  O  O313  1  0.92418816  0.04840741  0.04078764  1 -0.546856
  O  O314  1  0.85078848  0.61301647  0.19457621  1 -0.230587
  O  O315  1  0.93684956  0.99274610  0.42290269  1 -0.557575
  O  O316  1  0.99942143  0.80398605  0.42353340  1 -0.540867
  O  O317  1  0.48617421  0.73932703  0.04187994  1 -0.552613
  O  O318  1  0.42418765  0.54840439  0.04078789  1 -0.546967
  O  O319  1  0.35078841  0.11301641  0.19457617  1 -0.230654
  O  O320  1  0.43684938  0.49274717  0.42290284  1 -0.557566
  O  O321  1  0.49942104  0.30398645  0.42353327  1 -0.540839
  O  O322  1  0.01382538  0.23932889  0.45811984  1 -0.552633
  O  O323  1  0.07581209  0.04840612  0.45921243  1 -0.546964
  O  O324  1  0.14921156  0.61301636  0.30542375  1 -0.230585
  O  O325  1  0.06315067  0.99274721  0.07709705  1 -0.557556
  O  O326  1  0.00057888  0.80398720  0.07646664  1 -0.540851
  O  O327  1  0.51382516  0.73932886  0.45812001  1 -0.55271
  O  O328  1  0.57581195  0.54840684  0.45921235  1 -0.546869
  O  O329  1  0.64921157  0.11301640  0.30542375  1 -0.230589
  O  O330  1  0.56315048  0.49274596  0.07709737  1 -0.557581
  O  O331  1  0.50057855  0.30398567  0.07646657  1 -0.540867
  O  O332  1  0.01382574  0.76067245  0.95812005  1 -0.55264
  O  O333  1  0.07581216  0.95159535  0.95921215  1 -0.546983
  O  O334  1  0.14921156  0.38698364  0.80542382  1 -0.23065
  O  O335  1  0.06315062  0.00725296  0.57709716  1 -0.557562
  O  O336  1  0.00057893  0.19601352  0.57646677  1 -0.54084
  O  O337  1  0.51382505  0.26067107  0.95812005  1 -0.552712
  O  O338  1  0.57581193  0.45159287  0.95921234  1 -0.546869
  O  O339  1  0.64921157  0.88698363  0.80542377  1 -0.230602
  O  O340  1  0.56315040  0.50725396  0.57709734  1 -0.557591
  O  O341  1  0.50057855  0.69601416  0.57646657  1 -0.540871
  O  O342  1  0.98617493  0.76067099  0.54187998  1 -0.552664
  O  O343  1  0.92418810  0.95159303  0.54078762  1 -0.546872
  O  O344  1  0.85078848  0.38698344  0.69457618  1 -0.230662
  O  O345  1  0.93684950  0.00725394  0.92290261  1 -0.557584
  O  O346  1  0.99942144  0.19601422  0.92353340  1 -0.54086
  O  O347  1  0.48617459  0.26067129  0.54188024  1 -0.55263
  O  O348  1  0.42418788  0.45159396  0.54078756  1 -0.546965
  O  O349  1  0.35078839  0.88698366  0.69457625  1 -0.23059
  O  O350  1  0.43684934  0.50725274  0.92290295  1 -0.557563
  O  O351  1  0.49942112  0.69601285  0.92353335  1 -0.540851
