# generated using pymatgen
data_Cu2H15C16NO11
_symmetry_space_group_name_H-M   'P 1'
_cell_length_a   18.62304692
_cell_length_b   14.05106087
_cell_length_c   21.41144200
_cell_angle_alpha   90.00000000
_cell_angle_beta   112.02481843
_cell_angle_gamma   90.00000000
_symmetry_Int_Tables_number   1
_chemical_formula_structural   Cu2H15C16NO11
_chemical_formula_sum   'Cu16 H120 C128 N8 O88'
_cell_volume   5193.92383722
_cell_formula_units_Z   8
loop_
 _symmetry_equiv_pos_site_id
 _symmetry_equiv_pos_as_xyz
  1  'x, y, z'
loop_
 _atom_site_type_symbol
 _atom_site_label
 _atom_site_symmetry_multiplicity
 _atom_site_fract_x
 _atom_site_fract_y
 _atom_site_fract_z
 _atom_site_occupancy
 _atom_site_charge
  Cu  Cu0  1  0.24045901  0.26374516  0.32154166  1 1.036356
  Cu  Cu1  1  0.24072006  0.23304309  0.18347869  1 0.936916
  Cu  Cu2  1  0.40914583  0.22264066  0.30407392  1 0.807548
  Cu  Cu3  1  0.07246152  0.24783401  0.20179358  1 0.932478
  Cu  Cu4  1  0.75954099  0.76374516  0.17845834  1 1.036356
  Cu  Cu5  1  0.75927994  0.73304309  0.31652131  1 0.936916
  Cu  Cu6  1  0.59085417  0.72264066  0.19592608  1 0.807548
  Cu  Cu7  1  0.92753848  0.74783401  0.29820642  1 0.932478
  Cu  Cu8  1  0.75954099  0.73625484  0.67845834  1 1.036356
  Cu  Cu9  1  0.75927994  0.76695691  0.81652131  1 0.936916
  Cu  Cu10  1  0.59085417  0.77735934  0.69592608  1 0.807548
  Cu  Cu11  1  0.92753848  0.75216599  0.79820642  1 0.932478
  Cu  Cu12  1  0.24045901  0.23625484  0.82154166  1 1.036356
  Cu  Cu13  1  0.24072006  0.26695691  0.68347869  1 0.936916
  Cu  Cu14  1  0.40914583  0.27735934  0.80407392  1 0.807548
  Cu  Cu15  1  0.07246152  0.25216599  0.70179358  1 0.932478
  H  H16  1  0.94810667  0.36559202  0.21951242  1 0.385777
  H  H17  1  0.89788381  0.44668343  0.17721730  1 0.405574
  H  H18  1  0.00394342  -0.01095235  0.22286658  1 0.386417
  H  H19  1  0.97852996  0.07347106  0.17015115  1 0.384103
  H  H20  1  0.33488474  0.28805936  0.03065912  1 0.137722
  H  H21  1  0.54169243  0.22514088  -0.00655971  1 0.137393
  H  H22  1  0.53187595  0.15883413  0.18609054  1 0.126628
  H  H23  1  0.51687947  0.01726235  0.06670858  1 0.126807
  H  H24  1  0.57680391  0.92904252  0.12182178  1 0.150354
  H  H25  1  0.58173948  0.94650787  0.04240739  1 0.14464
  H  H26  1  0.74327551  0.33623781  0.17996325  1 0.153172
  H  H27  1  0.65353039  0.32258750  0.19122847  1 0.143863
  H  H28  1  0.65361895  0.34561133  0.10984281  1 0.145098
  H  H29  1  0.94485829  0.21901610  0.30977288  1 0.125851
  H  H30  1  0.94758564  0.20612939  0.51106776  1 0.121634
  H  H31  1  0.15241914  0.29352572  0.47836294  1 0.140514
  H  H32  1  0.72752610  0.34081731  0.35336438  1 0.157051
  H  H33  1  0.80189214  0.35029622  0.32052346  1 0.133501
  H  H34  1  0.82695736  0.34631696  0.40920746  1 0.131201
  H  H35  1  0.97505465  0.04333638  0.40136178  1 0.133174
  H  H36  1  0.91268395  0.94883314  0.35807934  1 0.154836
  H  H37  1  0.93016985  0.96871104  0.44348037  1 0.144559
  H  H38  1  0.56872741  0.24333318  0.27914088  1 0.364866
  H  H39  1  0.85441085  0.02648763  0.22434974  1 0.356734
  H  H40  1  0.31758641  0.37812196  0.24903874  1 0.345098
  H  H41  1  0.17203764  0.12501616  0.23768003  1 0.377993
  H  H42  1  0.91886510  0.22809400  0.17464231  1 0.378187
  H  H43  1  0.94216520  0.23435591  0.10921934  1 0.403656
  H  H44  1  0.09668914  0.01389239  0.20118932  1 0.377479
  H  H45  1  0.17608189  -0.00168184  0.18995371  1 0.386411
  H  H46  1  0.05189333  0.86559202  0.28048758  1 0.385777
  H  H47  1  0.10211619  0.94668343  0.32278270  1 0.405574
  H  H48  1  -0.00394342  0.48904765  0.27713342  1 0.386417
  H  H49  1  0.02147004  0.57347106  0.32984885  1 0.384103
  H  H50  1  0.66511526  0.78805936  0.46934088  1 0.137722
  H  H51  1  0.45830757  0.72514088  0.50655971  1 0.137393
  H  H52  1  0.46812405  0.65883413  0.31390946  1 0.126628
  H  H53  1  0.48312053  0.51726235  0.43329142  1 0.126807
  H  H54  1  0.42319609  0.42904252  0.37817822  1 0.150354
  H  H55  1  0.41826052  0.44650787  0.45759261  1 0.14464
  H  H56  1  0.25672449  0.83623781  0.32003675  1 0.153172
  H  H57  1  0.34646961  0.82258750  0.30877153  1 0.143863
  H  H58  1  0.34638105  0.84561133  0.39015719  1 0.145098
  H  H59  1  0.05514171  0.71901610  0.19022712  1 0.125851
  H  H60  1  0.05241436  0.70612939  0.98893224  1 0.121634
  H  H61  1  0.84758086  0.79352572  0.02163706  1 0.140515
  H  H62  1  0.27247390  0.84081731  0.14663562  1 0.157051
  H  H63  1  0.19810786  0.85029622  0.17947654  1 0.133501
  H  H64  1  0.17304264  0.84631696  0.09079254  1 0.131201
  H  H65  1  0.02494535  0.54333638  0.09863822  1 0.133174
  H  H66  1  0.08731605  0.44883314  0.14192066  1 0.154836
  H  H67  1  0.06983015  0.46871104  0.05651963  1 0.144559
  H  H68  1  0.43127259  0.74333318  0.22085912  1 0.364866
  H  H69  1  0.14558915  0.52648763  0.27565026  1 0.356734
  H  H70  1  0.68241359  0.87812196  0.25096126  1 0.345098
  H  H71  1  0.82796236  0.62501616  0.26231997  1 0.377993
  H  H72  1  0.08113490  0.72809400  0.32535769  1 0.378187
  H  H73  1  0.05783480  0.73435591  0.39078066  1 0.403656
  H  H74  1  0.90331086  0.51389239  0.29881068  1 0.377479
  H  H75  1  0.82391811  0.49831816  0.31004629  1 0.386412
  H  H76  1  0.05189333  0.63440798  0.78048758  1 0.385777
  H  H77  1  0.10211619  0.55331657  0.82278270  1 0.405574
  H  H78  1  -0.00394342  0.01095235  0.77713342  1 0.386417
  H  H79  1  0.02147004  0.92652894  0.82984885  1 0.384103
  H  H80  1  0.66511526  0.71194064  0.96934088  1 0.137722
  H  H81  1  0.45830757  0.77485912  0.00655971  1 0.137392
  H  H82  1  0.46812405  0.84116587  0.81390946  1 0.126628
  H  H83  1  0.48312053  0.98273765  0.93329142  1 0.126808
  H  H84  1  0.42319609  0.07095748  0.87817822  1 0.150354
  H  H85  1  0.41826052  0.05349213  0.95759261  1 0.144641
  H  H86  1  0.25672449  0.66376219  0.82003675  1 0.153172
  H  H87  1  0.34646961  0.67741250  0.80877153  1 0.143863
  H  H88  1  0.34638105  0.65438867  0.89015719  1 0.145098
  H  H89  1  0.05514171  0.78098390  0.69022712  1 0.125851
  H  H90  1  0.05241436  0.79387061  0.48893224  1 0.121632
  H  H91  1  0.84758086  0.70647428  0.52163706  1 0.140515
  H  H92  1  0.27247390  0.65918269  0.64663562  1 0.157051
  H  H93  1  0.19810786  0.64970378  0.67947654  1 0.133501
  H  H94  1  0.17304264  0.65368304  0.59079254  1 0.1312
  H  H95  1  0.02494535  0.95666362  0.59863822  1 0.133174
  H  H96  1  0.08731605  0.05116686  0.64192066  1 0.154836
  H  H97  1  0.06983015  0.03128896  0.55651963  1 0.14456
  H  H98  1  0.43127259  0.75666682  0.72085912  1 0.364866
  H  H99  1  0.14558915  0.97351237  0.77565026  1 0.356734
  H  H100  1  0.68241359  0.62187804  0.75096126  1 0.345098
  H  H101  1  0.82796236  0.87498384  0.76231997  1 0.377993
  H  H102  1  0.08113490  0.77190600  0.82535769  1 0.378187
  H  H103  1  0.05783480  0.76564409  0.89078066  1 0.403654
  H  H104  1  0.90331086  0.98610761  0.79881068  1 0.377479
  H  H105  1  0.82391811  0.00168184  0.81004629  1 0.386411
  H  H106  1  0.94810667  0.13440798  0.71951242  1 0.385777
  H  H107  1  0.89788381  0.05331657  0.67721730  1 0.405574
  H  H108  1  0.00394342  0.51095235  0.72286658  1 0.386417
  H  H109  1  0.97852996  0.42652894  0.67015115  1 0.384103
  H  H110  1  0.33488474  0.21194064  0.53065912  1 0.137722
  H  H111  1  0.54169243  0.27485912  0.49344029  1 0.137392
  H  H112  1  0.53187595  0.34116587  0.68609054  1 0.126628
  H  H113  1  0.51687947  0.48273765  0.56670858  1 0.126808
  H  H114  1  0.57680391  0.57095748  0.62182178  1 0.150354
  H  H115  1  0.58173948  0.55349213  0.54240739  1 0.144641
  H  H116  1  0.74327551  0.16376219  0.67996325  1 0.153172
  H  H117  1  0.65353039  0.17741250  0.69122847  1 0.143863
  H  H118  1  0.65361895  0.15438867  0.60984281  1 0.145098
  H  H119  1  0.94485829  0.28098390  0.80977288  1 0.125851
  H  H120  1  0.94758564  0.29387061  0.01106776  1 0.121632
  H  H121  1  0.15241914  0.20647428  0.97836294  1 0.140515
  H  H122  1  0.72752610  0.15918269  0.85336438  1 0.157051
  H  H123  1  0.80189214  0.14970378  0.82052346  1 0.133501
  H  H124  1  0.82695736  0.15368304  0.90920746  1 0.1312
  H  H125  1  0.97505465  0.45666362  0.90136178  1 0.133174
  H  H126  1  0.91268395  0.55116686  0.85807934  1 0.154836
  H  H127  1  0.93016985  0.53128896  0.94348037  1 0.14456
  H  H128  1  0.56872741  0.25666682  0.77914088  1 0.364866
  H  H129  1  0.85441085  0.47351237  0.72434974  1 0.356734
  H  H130  1  0.31758641  0.12187804  0.74903874  1 0.345098
  H  H131  1  0.17203764  0.37498384  0.73768003  1 0.377993
  H  H132  1  0.91886510  0.27190600  0.67464231  1 0.378187
  H  H133  1  0.94216520  0.26564409  0.60921934  1 0.403654
  H  H134  1  0.09668914  0.48610761  0.70118932  1 0.377479
  H  H135  1  0.17608189  0.50168184  0.68995371  1 0.386412
  C  C136  1  0.09513882  0.26672217  0.57560335  1 0.59973
  C  C137  1  0.05263561  0.25770941  0.50164251  1 -0.020662
  C  C138  1  0.39003417  0.22621465  0.16372532  1 0.61128
  C  C139  1  0.43011087  0.22719706  0.11473222  1 -0.017525
  C  C140  1  0.39422321  0.26160225  0.04859845  1 -0.080264
  C  C141  1  0.43460789  0.26121502  0.00487105  1 -0.009309
  C  C142  1  0.51059202  0.22632775  0.02752462  1 -0.157175
  C  C143  1  0.54462492  0.19065307  0.09255359  1 0.170893
  C  C144  1  0.50519608  0.19027412  0.13626297  1 -0.160343
  C  C145  1  0.57421465  0.98389688  0.08453092  1 -0.426431
  C  C146  1  0.63649199  0.05545290  0.11422460  1 0.22961
  C  C147  1  0.68758160  0.20363628  0.14680614  1 0.224344
  C  C148  1  0.68446679  0.30790036  0.15739650  1 -0.443909
  C  C149  1  0.74864486  0.13876558  0.16740827  1 -0.23466
  C  C150  1  0.71613516  0.04500955  0.14688328  1 -0.20677
  C  C151  1  0.82975344  0.16459328  0.20107281  1 0.603523
  C  C152  1  0.09458875  0.26377783  0.34224316  1 0.605381
  C  C153  1  0.05232798  0.25931850  0.38915128  1 -0.00765
  C  C154  1  0.97448862  0.23140244  0.36347043  1 -0.143223
  C  C155  1  0.93707571  0.21245778  0.40761309  1 0.172125
  C  C156  1  0.97572479  0.22537431  0.47655458  1 -0.159673
  C  C157  1  0.09148751  0.27338672  0.45814691  1 -0.082329
  C  C158  1  0.85389669  0.06986634  0.37577545  1 0.215943
  C  C159  1  0.77484673  0.05145447  0.34598868  1 -0.199322
  C  C160  1  0.73468027  0.14179875  0.33512296  1 -0.19891
  C  C161  1  0.79101283  0.21288142  0.35822439  1 0.205869
  C  C162  1  0.78641108  0.31843834  0.36086833  1 -0.433689
  C  C163  1  0.92179933  0.00493182  0.39572483  1 -0.433564
  C  C164  1  0.65053000  0.15360340  0.31284677  1 0.588334
  C  C165  1  0.75327851  0.95201959  0.16241946  1 0.585378
  C  C166  1  0.74817925  0.95492902  0.32310343  1 0.624014
  C  C167  1  0.39644850  0.29172695  0.93226542  1 0.598447
  C  C168  1  0.90486118  0.76672217  0.92439665  1 0.59973
  C  C169  1  0.94736439  0.75770941  0.99835749  1 -0.020662
  C  C170  1  0.60996583  0.72621465  0.33627468  1 0.61128
  C  C171  1  0.56988913  0.72719706  0.38526778  1 -0.017525
  C  C172  1  0.60577679  0.76160225  0.45140155  1 -0.080264
  C  C173  1  0.56539211  0.76121502  0.49512895  1 -0.009309
  C  C174  1  0.48940798  0.72632775  0.47247538  1 -0.157175
  C  C175  1  0.45537508  0.69065307  0.40744641  1 0.170893
  C  C176  1  0.49480392  0.69027412  0.36373703  1 -0.160343
  C  C177  1  0.42578535  0.48389688  0.41546908  1 -0.426431
  C  C178  1  0.36350801  0.55545290  0.38577540  1 0.22961
  C  C179  1  0.31241840  0.70363628  0.35319386  1 0.224344
  C  C180  1  0.31553321  0.80790036  0.34260350  1 -0.443909
  C  C181  1  0.25135514  0.63876558  0.33259173  1 -0.23466
  C  C182  1  0.28386484  0.54500955  0.35311672  1 -0.20677
  C  C183  1  0.17024656  0.66459328  0.29892719  1 0.603523
  C  C184  1  0.90541125  0.76377783  0.15775684  1 0.605381
  C  C185  1  0.94767202  0.75931850  0.11084872  1 -0.00765
  C  C186  1  0.02551138  0.73140244  0.13652957  1 -0.143223
  C  C187  1  0.06292429  0.71245778  0.09238691  1 0.172125
  C  C188  1  0.02427521  0.72537431  0.02344542  1 -0.159673
  C  C189  1  0.90851249  0.77338672  0.04185309  1 -0.082329
  C  C190  1  0.14610331  0.56986634  0.12422455  1 0.215943
  C  C191  1  0.22515327  0.55145447  0.15401132  1 -0.199322
  C  C192  1  0.26531973  0.64179875  0.16487704  1 -0.19891
  C  C193  1  0.20898717  0.71288142  0.14177561  1 0.205869
  C  C194  1  0.21358892  0.81843834  0.13913167  1 -0.433689
  C  C195  1  0.07820067  0.50493182  0.10427517  1 -0.433564
  C  C196  1  0.34947000  0.65360340  0.18715323  1 0.588334
  C  C197  1  0.24672149  0.45201959  0.33758054  1 0.585378
  C  C198  1  0.25182075  0.45492902  0.17689657  1 0.624014
  C  C199  1  0.60355150  0.79172695  0.56773458  1 0.598447
  C  C200  1  0.90486118  0.73327783  0.42439665  1 0.59973
  C  C201  1  0.94736439  0.74229059  0.49835749  1 -0.020662
  C  C202  1  0.60996583  0.77378535  0.83627468  1 0.61128
  C  C203  1  0.56988913  0.77280294  0.88526778  1 -0.017525
  C  C204  1  0.60577679  0.73839775  0.95140155  1 -0.080264
  C  C205  1  0.56539211  0.73878498  0.99512895  1 -0.009309
  C  C206  1  0.48940798  0.77367225  0.97247538  1 -0.157175
  C  C207  1  0.45537508  0.80934693  0.90744641  1 0.170893
  C  C208  1  0.49480392  0.80972588  0.86373703  1 -0.160343
  C  C209  1  0.42578535  0.01610312  0.91546908  1 -0.426432
  C  C210  1  0.36350801  0.94454710  0.88577540  1 0.22961
  C  C211  1  0.31241840  0.79636372  0.85319386  1 0.224344
  C  C212  1  0.31553321  0.69209964  0.84260350  1 -0.443909
  C  C213  1  0.25135514  0.86123442  0.83259173  1 -0.23466
  C  C214  1  0.28386484  0.95499045  0.85311672  1 -0.20677
  C  C215  1  0.17024656  0.83540672  0.79892719  1 0.603523
  C  C216  1  0.90541125  0.73622217  0.65775684  1 0.605381
  C  C217  1  0.94767202  0.74068150  0.61084872  1 -0.00765
  C  C218  1  0.02551138  0.76859756  0.63652957  1 -0.143223
  C  C219  1  0.06292429  0.78754222  0.59238691  1 0.172125
  C  C220  1  0.02427521  0.77462569  0.52344542  1 -0.159673
  C  C221  1  0.90851249  0.72661328  0.54185309  1 -0.082329
  C  C222  1  0.14610331  0.93013366  0.62422455  1 0.215943
  C  C223  1  0.22515327  0.94854553  0.65401132  1 -0.199323
  C  C224  1  0.26531973  0.85820125  0.66487704  1 -0.19891
  C  C225  1  0.20898717  0.78711858  0.64177561  1 0.205869
  C  C226  1  0.21358892  0.68156166  0.63913167  1 -0.433689
  C  C227  1  0.07820067  -0.00493182  0.60427517  1 -0.433564
  C  C228  1  0.34947000  0.84639660  0.68715323  1 0.588334
  C  C229  1  0.24672149  0.04798041  0.83758054  1 0.585378
  C  C230  1  0.25182075  0.04507098  0.67689657  1 0.624014
  C  C231  1  0.60355150  0.70827305  0.06773458  1 0.598447
  C  C232  1  0.09513882  0.23327783  0.07560335  1 0.59973
  C  C233  1  0.05263561  0.24229059  0.00164251  1 -0.020662
  C  C234  1  0.39003417  0.27378535  0.66372532  1 0.61128
  C  C235  1  0.43011087  0.27280294  0.61473222  1 -0.017525
  C  C236  1  0.39422321  0.23839775  0.54859845  1 -0.080264
  C  C237  1  0.43460789  0.23878498  0.50487105  1 -0.009309
  C  C238  1  0.51059202  0.27367225  0.52752462  1 -0.157175
  C  C239  1  0.54462492  0.30934693  0.59255359  1 0.170893
  C  C240  1  0.50519608  0.30972588  0.63626297  1 -0.160343
  C  C241  1  0.57421465  0.51610312  0.58453092  1 -0.426432
  C  C242  1  0.63649199  0.44454710  0.61422460  1 0.22961
  C  C243  1  0.68758160  0.29636372  0.64680614  1 0.224344
  C  C244  1  0.68446679  0.19209964  0.65739650  1 -0.443909
  C  C245  1  0.74864486  0.36123442  0.66740827  1 -0.23466
  C  C246  1  0.71613516  0.45499045  0.64688328  1 -0.20677
  C  C247  1  0.82975344  0.33540672  0.70107281  1 0.603523
  C  C248  1  0.09458875  0.23622217  0.84224316  1 0.605381
  C  C249  1  0.05232798  0.24068150  0.88915128  1 -0.00765
  C  C250  1  0.97448862  0.26859756  0.86347043  1 -0.143223
  C  C251  1  0.93707571  0.28754222  0.90761309  1 0.172125
  C  C252  1  0.97572479  0.27462569  0.97655458  1 -0.159673
  C  C253  1  0.09148751  0.22661328  0.95814691  1 -0.082329
  C  C254  1  0.85389669  0.43013366  0.87577545  1 0.215943
  C  C255  1  0.77484673  0.44854553  0.84598868  1 -0.199323
  C  C256  1  0.73468027  0.35820125  0.83512296  1 -0.19891
  C  C257  1  0.79101283  0.28711858  0.85822439  1 0.205869
  C  C258  1  0.78641108  0.18156166  0.86086833  1 -0.433689
  C  C259  1  0.92179933  0.49506818  0.89572483  1 -0.433565
  C  C260  1  0.65053000  0.34639660  0.81284677  1 0.588334
  C  C261  1  0.75327851  0.54798041  0.66241946  1 0.585378
  C  C262  1  0.74817925  0.54507098  0.82310343  1 0.624014
  C  C263  1  0.39644850  0.20827305  0.43226542  1 0.598447
  N  N264  1  0.62085328  0.15144142  0.11531249  1 -0.088166
  N  N265  1  0.86236122  0.16776420  0.38245152  1 -0.096686
  N  N266  1  0.37914672  0.65144142  0.38468751  1 -0.088166
  N  N267  1  0.13763878  0.66776420  0.11754848  1 -0.096686
  N  N268  1  0.37914672  0.84855858  0.88468751  1 -0.088166
  N  N269  1  0.13763878  0.83223580  0.61754848  1 -0.096686
  N  N270  1  0.62085328  0.34855858  0.61531249  1 -0.088166
  N  N271  1  0.86236122  0.33223580  0.88245152  1 -0.096686
  O  O272  1  0.44065337  0.28167060  0.89750883  1 -0.577243
  O  O273  1  0.32818218  0.32058670  0.90970381  1 -0.557627
  O  O274  1  0.71345695  0.88008544  0.13085737  1 -0.497616
  O  O275  1  0.78708552  0.88436077  0.35243718  1 -0.53758
  O  O276  1  0.16032172  0.30829095  0.59744340  1 -0.525549
  O  O277  1  0.06067708  0.22898508  0.61117813  1 -0.567332
  O  O278  1  0.95131728  0.42447063  0.19630477  1 -0.741159
  O  O279  1  0.00496076  0.01150539  0.17938216  1 -0.762087
  O  O280  1  0.43479594  0.22496222  0.22683600  1 -0.571779
  O  O281  1  0.31698539  0.22518768  0.13987551  1 -0.5131
  O  O282  1  0.30723952  0.26986491  0.27207684  1 -0.854732
  O  O283  1  0.17696602  0.19813689  0.23858911  1 -0.884672
  O  O284  1  0.16746945  0.25325948  0.36732964  1 -0.510388
  O  O285  1  0.05145306  0.27374038  0.27997263  1 -0.55996
  O  O286  1  0.88066865  0.09847265  0.23124826  1 -0.479616
  O  O287  1  0.85335251  0.24905090  0.20005922  1 -0.559722
  O  O288  1  0.62539652  0.24496249  0.29246195  1 -0.503988
  O  O289  1  0.60443011  0.09087684  0.31182830  1 -0.490938
  O  O290  1  0.82116334  0.94193003  0.20813356  1 -0.552421
  O  O291  1  0.68486011  0.94698251  0.26744491  1 -0.46171
  O  O292  1  0.95702525  0.20556520  0.15360802  1 -0.76378
  O  O293  1  0.15570887  0.01682397  0.22386395  1 -0.735202
  O  O294  1  0.55934663  0.78167060  0.60249117  1 -0.577243
  O  O295  1  0.67181782  0.82058670  0.59029619  1 -0.557627
  O  O296  1  0.28654305  0.38008544  0.36914263  1 -0.497616
  O  O297  1  0.21291448  0.38436077  0.14756282  1 -0.53758
  O  O298  1  0.83967828  0.80829095  0.90255660  1 -0.525549
  O  O299  1  0.93932292  0.72898508  0.88882187  1 -0.567332
  O  O300  1  0.04868272  0.92447063  0.30369523  1 -0.741159
  O  O301  1  0.99503924  0.51150539  0.32061784  1 -0.762087
  O  O302  1  0.56520406  0.72496222  0.27316400  1 -0.571779
  O  O303  1  0.68301461  0.72518768  0.36012449  1 -0.5131
  O  O304  1  0.69276048  0.76986491  0.22792316  1 -0.854732
  O  O305  1  0.82303398  0.69813689  0.26141089  1 -0.884672
  O  O306  1  0.83253055  0.75325948  0.13267036  1 -0.510388
  O  O307  1  0.94854694  0.77374038  0.22002737  1 -0.55996
  O  O308  1  0.11933135  0.59847265  0.26875174  1 -0.479616
  O  O309  1  0.14664749  0.74905090  0.29994078  1 -0.559722
  O  O310  1  0.37460348  0.74496249  0.20753805  1 -0.503988
  O  O311  1  0.39556989  0.59087684  0.18817170  1 -0.490938
  O  O312  1  0.17883666  0.44193003  0.29186644  1 -0.552421
  O  O313  1  0.31513989  0.44698251  0.23255509  1 -0.46171
  O  O314  1  0.04297475  0.70556520  0.34639198  1 -0.76378
  O  O315  1  0.84429113  0.51682397  0.27613605  1 -0.735202
  O  O316  1  0.55934663  0.71832940  0.10249117  1 -0.577243
  O  O317  1  0.67181782  0.67941330  0.09029619  1 -0.557627
  O  O318  1  0.28654305  0.11991456  0.86914263  1 -0.497616
  O  O319  1  0.21291448  0.11563923  0.64756282  1 -0.53758
  O  O320  1  0.83967828  0.69170905  0.40255660  1 -0.525549
  O  O321  1  0.93932292  0.77101492  0.38882187  1 -0.567332
  O  O322  1  0.04868272  0.57552937  0.80369523  1 -0.741159
  O  O323  1  0.99503924  0.98849461  0.82061784  1 -0.762087
  O  O324  1  0.56520406  0.77503778  0.77316400  1 -0.571779
  O  O325  1  0.68301461  0.77481232  0.86012449  1 -0.5131
  O  O326  1  0.69276048  0.73013509  0.72792316  1 -0.854732
  O  O327  1  0.82303398  0.80186311  0.76141089  1 -0.884672
  O  O328  1  0.83253055  0.74674052  0.63267036  1 -0.510388
  O  O329  1  0.94854694  0.72625962  0.72002737  1 -0.55996
  O  O330  1  0.11933135  0.90152735  0.76875174  1 -0.479616
  O  O331  1  0.14664749  0.75094910  0.79994078  1 -0.559722
  O  O332  1  0.37460348  0.75503751  0.70753805  1 -0.503988
  O  O333  1  0.39556989  0.90912316  0.68817170  1 -0.490938
  O  O334  1  0.17883666  0.05806997  0.79186644  1 -0.55242
  O  O335  1  0.31513989  0.05301749  0.73255509  1 -0.46171
  O  O336  1  0.04297475  0.79443480  0.84639198  1 -0.763779
  O  O337  1  0.84429113  0.98317603  0.77613605  1 -0.735202
  O  O338  1  0.44065337  0.21832940  0.39750883  1 -0.577243
  O  O339  1  0.32818218  0.17941330  0.40970381  1 -0.557627
  O  O340  1  0.71345695  0.61991456  0.63085737  1 -0.497616
  O  O341  1  0.78708552  0.61563923  0.85243718  1 -0.53758
  O  O342  1  0.16032172  0.19170905  0.09744340  1 -0.525549
  O  O343  1  0.06067708  0.27101492  0.11117813  1 -0.567332
  O  O344  1  0.95131728  0.07552937  0.69630477  1 -0.741159
  O  O345  1  0.00496076  0.48849461  0.67938216  1 -0.762087
  O  O346  1  0.43479594  0.27503778  0.72683600  1 -0.571779
  O  O347  1  0.31698539  0.27481232  0.63987551  1 -0.5131
  O  O348  1  0.30723952  0.23013509  0.77207684  1 -0.854732
  O  O349  1  0.17696602  0.30186311  0.73858911  1 -0.884672
  O  O350  1  0.16746945  0.24674052  0.86732964  1 -0.510388
  O  O351  1  0.05145306  0.22625962  0.77997263  1 -0.55996
  O  O352  1  0.88066865  0.40152735  0.73124826  1 -0.479616
  O  O353  1  0.85335251  0.25094910  0.70005922  1 -0.559722
  O  O354  1  0.62539652  0.25503751  0.79246195  1 -0.503988
  O  O355  1  0.60443011  0.40912316  0.81182830  1 -0.490938
  O  O356  1  0.82116334  0.55806997  0.70813356  1 -0.552421
  O  O357  1  0.68486011  0.55301749  0.76744491  1 -0.46171
  O  O358  1  0.95702525  0.29443480  0.65360802  1 -0.763779
  O  O359  1  0.15570887  0.48317603  0.72386395  1 -0.735202
