# generated using pymatgen
data_ZnH20C14N4O9
_symmetry_space_group_name_H-M   'P 1'
_cell_length_a   4.24557947
_cell_length_b   25.92782716
_cell_length_c   19.74624784
_cell_angle_alpha   89.99924680
_cell_angle_beta   89.99986166
_cell_angle_gamma   89.99980013
_symmetry_Int_Tables_number   1
_chemical_formula_structural   ZnH20C14N4O9
_chemical_formula_sum   'Zn4 H80 C56 N16 O36'
_cell_volume   2173.64031875
_cell_formula_units_Z   4
loop_
 _symmetry_equiv_pos_site_id
 _symmetry_equiv_pos_as_xyz
  1  'x, y, z'
loop_
 _atom_site_type_symbol
 _atom_site_label
 _atom_site_symmetry_multiplicity
 _atom_site_fract_x
 _atom_site_fract_y
 _atom_site_fract_z
 _atom_site_occupancy
 _atom_site_charge
  Zn  Zn0  1  0.35635414  0.35170408  0.61096146  1 0.945704
  Zn  Zn1  1  0.64363738  0.64829591  0.11095930  1 0.945735
  Zn  Zn2  1  0.64364747  0.85170498  0.61095637  1 0.945761
  Zn  Zn3  1  0.35635745  0.14829366  0.11095539  1 0.945796
  H  H4  1  0.48105983  0.35111156  0.83958676  1 0.117989
  H  H5  1  0.26321101  0.40739620  0.82256624  1 0.099575
  H  H6  1  0.97984734  0.40298623  0.82905446  1 0.063257
  H  H7  1  0.74980500  0.45944754  0.81661674  1 0.118457
  H  H8  1  0.75657313  0.34511265  0.11071319  1 0.084437
  H  H9  1  0.97986416  0.31839771  0.04315486  1 0.071299
  H  H10  1  0.48794040  0.28801751  0.98722724  1 0.138465
  H  H11  1  0.26459787  0.31977571  0.04995693  1 0.087329
  H  H12  1  0.15648523  0.49095121  0.08428276  1 0.112241
  H  H13  1  0.93187821  0.48891963  0.00834929  1 0.029518
  H  H14  1  0.54161448  0.55285679  0.03328043  1 0.129666
  H  H15  1  0.30631123  0.55844007  0.96005068  1 0.135535
  H  H16  1  0.51893740  0.64888494  0.33957785  1 0.118167
  H  H17  1  0.73677482  0.59259926  0.32256118  1 0.09962
  H  H18  1  0.02013755  0.59700934  0.32905108  1 0.063271
  H  H19  1  0.25019450  0.54054895  0.31661805  1 0.118397
  H  H20  1  0.24342589  0.65488959  0.61070479  1 0.084355
  H  H21  1  0.02012161  0.68160351  0.54314606  1 0.071282
  H  H22  1  0.51206478  0.71198224  0.48721887  1 0.138406
  H  H23  1  0.73540669  0.68022581  0.54995003  1 0.087311
  H  H24  1  0.84350264  0.50904935  0.58428315  1 0.112136
  H  H25  1  0.06811712  0.51108176  0.50834859  1 0.02928
  H  H26  1  0.45836413  0.44714318  0.53328125  1 0.12951
  H  H27  1  0.69369063  0.44156095  0.46005493  1 0.135489
  H  H28  1  0.51893541  0.85111354  0.83957887  1 0.118059
  H  H29  1  0.73677460  0.90739930  0.82256076  1 0.099556
  H  H30  1  0.02013923  0.90298778  0.82904681  1 0.063239
  H  H31  1  0.25018179  0.95944917  0.81660994  1 0.118407
  H  H32  1  0.24342724  0.84511342  0.11070624  1 0.084447
  H  H33  1  0.02011372  0.81839677  0.04314898  1 0.071245
  H  H34  1  0.51206481  0.78801950  0.98722142  1 0.138404
  H  H35  1  0.73540831  0.81977507  0.04995389  1 0.087268
  H  H36  1  0.84350549  0.99095261  0.08427496  1 0.112229
  H  H37  1  0.06810278  0.98891966  0.00834061  1 0.029581
  H  H38  1  0.45837262  0.05285954  0.03327103  1 0.12949
  H  H39  1  0.69368919  0.05844203  0.96004229  1 0.135552
  H  H40  1  0.48105785  0.14888690  0.33957306  1 0.118126
  H  H41  1  0.26323398  0.09260245  0.32256252  1 0.099598
  H  H42  1  0.97985365  0.09701232  0.32905066  1 0.063267
  H  H43  1  0.74981311  0.04055309  0.31662019  1 0.118458
  H  H44  1  0.75659375  0.15489169  0.61070834  1 0.084369
  H  H45  1  0.97988407  0.18160411  0.54314553  1 0.071236
  H  H46  1  0.48794043  0.21198272  0.48722022  1 0.138445
  H  H47  1  0.26461356  0.18022610  0.54995224  1 0.087373
  H  H48  1  0.15650809  0.00904941  0.58428266  1 0.112297
  H  H49  1  0.93189607  0.01108240  0.50834906  1 0.029536
  H  H50  1  0.54164295  0.94714389  0.53327890  1 0.1297
  H  H51  1  0.30632611  0.94156395  0.46005081  1 0.135549
  H  H52  1  0.62215458  0.68175759  0.69755227  1 0.14783
  H  H53  1  0.73297820  0.68276815  0.78501250  1 0.132182
  H  H54  1  0.01967266  0.67002653  0.72065637  1 0.151299
  H  H55  1  0.11339256  0.81071940  0.76055825  1 0.159318
  H  H56  1  0.33969807  0.75412226  0.74182657  1 0.081719
  H  H57  1  0.10483413  0.75700155  0.81975530  1 0.134107
  H  H58  1  0.65133955  0.76747407  0.73755976  1 0.222801
  H  H59  1  0.91732805  0.75655695  0.67572876  1 0.295747
  H  H60  1  0.37787447  0.31823788  0.19755998  1 0.147725
  H  H61  1  0.26699752  0.31723221  0.28501538  1 0.132159
  H  H62  1  0.98034870  0.32997071  0.22064978  1 0.151246
  H  H63  1  0.88662470  0.18927662  0.26056179  1 0.159257
  H  H64  1  0.66030736  0.24587070  0.24183215  1 0.081743
  H  H65  1  0.89515504  0.24299006  0.31976026  1 0.134095
  H  H66  1  0.34864972  0.23252352  0.23756674  1 0.222762
  H  H67  1  0.08267983  0.24344207  0.17573635  1 0.295753
  H  H68  1  0.37784917  0.18175495  0.69755457  1 0.147859
  H  H69  1  0.26703177  0.18276899  0.78501547  1 0.132173
  H  H70  1  0.98032923  0.17002696  0.72066046  1 0.15124
  H  H71  1  0.88661555  0.31071737  0.76056616  1 0.159245
  H  H72  1  0.66031528  0.25412023  0.74183073  1 0.081713
  H  H73  1  0.89518598  0.25699676  0.81975731  1 0.13412
  H  H74  1  0.34866733  0.26747377  0.73755947  1 0.222784
  H  H75  1  0.08267669  0.25655610  0.67573016  1 0.295749
  H  H76  1  0.62212113  0.81824161  0.19755723  1 0.147705
  H  H77  1  0.73298108  0.81723289  0.28501407  1 0.13212
  H  H78  1  0.01964672  0.82997136  0.22065191  1 0.151166
  H  H79  1  0.11336858  0.68927979  0.26056459  1 0.159261
  H  H80  1  0.33966733  0.74587567  0.24183045  1 0.08175
  H  H81  1  0.10481807  0.74299671  0.31975892  1 0.134129
  H  H82  1  0.65132492  0.73252570  0.23756540  1 0.222691
  H  H83  1  0.91729600  0.74344302  0.17573457  1 0.295744
  C  C84  1  0.52239147  0.37928451  0.73667919  1 0.603949
  C  C85  1  0.49710131  0.38805386  0.81240655  1 -0.308164
  C  C86  1  0.74334009  0.42122433  0.83971205  1 0.007643
  C  C87  1  0.74569001  0.33611154  0.05681031  1 0.001554
  C  C88  1  0.49580648  0.29937506  0.04078621  1 -0.309619
  C  C89  1  0.49831931  0.25217983  0.08632668  1 0.632145
  C  C90  1  0.17243141  0.49702913  0.02943582  1 0.010513
  C  C91  1  0.29500137  0.55056679  0.01470854  1 -0.343974
  C  C92  1  0.13240269  0.59444380  0.04841188  1 0.644823
  C  C93  1  0.45863671  0.41573251  0.04241187  1 0.549716
  C  C94  1  0.45292106  0.45747187  0.93435682  1 0.542313
  C  C95  1  0.85595884  0.39253805  0.95754962  1 0.557465
  C  C96  1  0.47758464  0.62071111  0.23667699  1 0.60409
  C  C97  1  0.50288738  0.61194465  0.31240161  1 -0.308599
  C  C98  1  0.25665415  0.57876981  0.33970859  1 0.007614
  C  C99  1  0.25431936  0.66389048  0.55680332  1 0.001642
  C  C100  1  0.50419753  0.70062822  0.54077712  1 -0.309503
  C  C101  1  0.50166290  0.74781969  0.58632002  1 0.632193
  C  C102  1  0.82756827  0.50297077  0.52943443  1 0.008467
  C  C103  1  0.70499369  0.44943426  0.51470679  1 -0.344109
  C  C104  1  0.86762096  0.40554446  0.54842286  1 0.644792
  C  C105  1  0.54137546  0.58426603  0.54240809  1 0.547866
  C  C106  1  0.54707112  0.54252692  0.43435373  1 0.540231
  C  C107  1  0.14403609  0.60746390  0.45753912  1 0.557439
  C  C108  1  0.47761607  0.87928680  0.73667226  1 0.604049
  C  C109  1  0.50289480  0.88805367  0.81239912  1 -0.308324
  C  C110  1  0.25665319  0.92122694  0.83970343  1 0.007452
  C  C111  1  0.25430410  0.83611435  0.05680648  1 0.001677
  C  C112  1  0.50418718  0.79937603  0.04077989  1 -0.309378
  C  C113  1  0.50164778  0.75218405  0.08632508  1 0.631832
  C  C114  1  0.82756286  0.99702942  0.02942705  1 0.010432
  C  C115  1  0.70499827  0.05056684  0.01469519  1 -0.343785
  C  C116  1  0.86762666  0.09445635  0.04841184  1 0.644883
  C  C117  1  0.54136830  0.91573729  0.04240343  1 0.550213
  C  C118  1  0.54706232  0.95747584  0.93435039  1 0.542308
  C  C119  1  0.14402668  0.89253861  0.95753884  1 0.557478
  C  C120  1  0.52241037  0.12070958  0.23667429  1 0.60416
  C  C121  1  0.49711520  0.11194530  0.31240024  1 -0.308495
  C  C122  1  0.74335601  0.07877451  0.33970686  1 0.007499
  C  C123  1  0.74568585  0.16389121  0.55680261  1 0.001787
  C  C124  1  0.49581146  0.20062961  0.54077879  1 -0.309685
  C  C125  1  0.49833461  0.24782016  0.58631894  1 0.63221
  C  C126  1  0.17244657  0.00297217  0.52943407  1 0.010538
  C  C127  1  0.29502085  0.94943558  0.51470717  1 -0.344025
  C  C128  1  0.13241205  0.90555507  0.54841166  1 0.64455
  C  C129  1  0.45865024  0.08426959  0.54240920  1 0.550171
  C  C130  1  0.45294176  0.04252955  0.43435387  1 0.542142
  C  C131  1  0.85597026  0.10746451  0.45754202  1 0.557414
  C  C132  1  0.80858968  0.69125937  0.73308875  1 -0.252773
  C  C133  1  0.11968516  0.76886262  0.76648146  1 -0.221536
  C  C134  1  0.19140920  0.30873709  0.23309248  1 -0.252586
  C  C135  1  0.88031584  0.23113311  0.26648477  1 -0.221563
  C  C136  1  0.19141173  0.19125840  0.73309102  1 -0.252657
  C  C137  1  0.88032144  0.26886032  0.76648502  1 -0.221425
  C  C138  1  0.80856861  0.80873936  0.23309080  1 -0.252387
  C  C139  1  0.11966434  0.73113696  0.26648549  1 -0.221524
  N  N140  1  0.70592597  0.42708360  0.91412160  1 -0.23692
  N  N141  1  0.70745698  0.38543193  0.01997878  1 -0.234163
  N  N142  1  0.40743439  0.46080589  0.00471678  1 -0.274204
  N  N143  1  0.29406987  0.57291675  0.41411751  1 -0.23691
  N  N144  1  0.29255005  0.61457004  0.51997296  1 -0.234494
  N  N145  1  0.59255936  0.53919608  0.50472062  1 -0.266657
  N  N146  1  0.29404970  0.92708430  0.91411342  1 -0.236655
  N  N147  1  0.29253656  0.88543314  0.01996929  1 -0.234382
  N  N148  1  0.59254909  0.96080540  0.00470755  1 -0.274412
  N  N149  1  0.70594195  0.07291943  0.41411773  1 -0.236596
  N  N150  1  0.70746894  0.11457007  0.51997650  1 -0.234345
  N  N151  1  0.40746003  0.03919797  0.50472217  1 -0.274412
  N  N152  1  0.86627012  0.74754855  0.72674911  1 -0.094887
  N  N153  1  0.13372570  0.25244809  0.22675644  1 -0.094818
  N  N154  1  0.13373219  0.24754849  0.72675044  1 -0.095022
  N  N155  1  0.86625508  0.75245010  0.22675338  1 -0.094856
  O  O156  1  0.30837766  0.34851899  0.71200051  1 -0.596625
  O  O157  1  0.73403580  0.39988210  0.70255652  1 -0.513849
  O  O158  1  0.27102368  0.22016645  0.07701845  1 -0.548442
  O  O159  1  0.70505369  0.24836623  0.13186118  1 -0.584576
  O  O160  1  0.87247475  0.58577172  0.07875284  1 -0.484088
  O  O161  1  0.26912253  0.63817013  0.04702589  1 -0.605216
  O  O162  1  0.08591835  0.36667806  0.94027674  1 -0.485588
  O  O163  1  0.29616626  0.40442502  0.09157764  1 -0.468445
  O  O164  1  0.28052580  0.48023445  0.89464692  1 -0.445524
  O  O165  1  0.69161097  0.65148077  0.21199561  1 -0.596637
  O  O166  1  0.26594590  0.60011432  0.20254966  1 -0.513848
  O  O167  1  0.72899974  0.77983756  0.57700566  1 -0.548642
  O  O168  1  0.29494876  0.75163290  0.63185417  1 -0.584495
  O  O169  1  0.12747780  0.41422404  0.57874863  1 -0.483961
  O  O170  1  0.73087296  0.36183797  0.54703002  1 -0.605176
  O  O171  1  0.91409139  0.63332575  0.44027081  1 -0.48564
  O  O172  1  0.70384674  0.59557942  0.59157186  1 -0.468714
  O  O173  1  0.71949549  0.51975942  0.39464056  1 -0.445709
  O  O174  1  0.69162801  0.84851947  0.71199658  1 -0.596509
  O  O175  1  0.26596957  0.89988503  0.70254670  1 -0.513841
  O  O176  1  0.72897999  0.72016590  0.07701823  1 -0.548373
  O  O177  1  0.29493696  0.74837172  0.13185726  1 -0.584441
  O  O178  1  0.12748868  0.08577423  0.07874101  1 -0.484095
  O  O179  1  0.73087900  0.13816232  0.04701969  1 -0.605266
  O  O180  1  0.91407818  0.86667916  0.94027167  1 -0.485664
  O  O181  1  0.70384275  0.90442345  0.09156748  1 -0.468733
  O  O182  1  0.71945344  0.98023818  0.89463629  1 -0.445463
  O  O183  1  0.30838589  0.15147600  0.21199229  1 -0.596683
  O  O184  1  0.73403282  0.10011247  0.20254789  1 -0.513833
  O  O185  1  0.27102495  0.27983605  0.57701524  1 -0.548477
  O  O186  1  0.70507894  0.25163313  0.63185711  1 -0.58462
  O  O187  1  0.87250703  0.91422593  0.57874965  1 -0.484016
  O  O188  1  0.26913840  0.86183250  0.54702268  1 -0.605071
  O  O189  1  0.08591965  0.13332749  0.44027306  1 -0.485619
  O  O190  1  0.29618061  0.09557769  0.59157420  1 -0.468709
  O  O191  1  0.28052824  0.01976245  0.39464270  1 -0.445423
