# generated using pymatgen
data_CaH4(C2O)4
_symmetry_space_group_name_H-M   'P 1'
_cell_length_a   10.15040841
_cell_length_b   13.82394771
_cell_length_c   14.88179243
_cell_angle_alpha   77.88624274
_cell_angle_beta   70.05998003
_cell_angle_gamma   68.46108229
_symmetry_Int_Tables_number   1
_chemical_formula_structural   CaH4(C2O)4
_chemical_formula_sum   'Ca6 H24 C48 O24'
_cell_volume   1817.35128352
_cell_formula_units_Z   6
loop_
 _symmetry_equiv_pos_site_id
 _symmetry_equiv_pos_as_xyz
  1  'x, y, z'
loop_
 _atom_site_type_symbol
 _atom_site_label
 _atom_site_symmetry_multiplicity
 _atom_site_fract_x
 _atom_site_fract_y
 _atom_site_fract_z
 _atom_site_occupancy
 _atom_site_charge
  Ca  Ca0  1  0.47556148  0.52591482  0.12369091  1 1.376072
  Ca  Ca1  1  0.52443852  0.47408518  0.87630909  1 1.376073
  Ca  Ca2  1  0.12516718  0.97408516  0.37630910  1 1.375551
  Ca  Ca3  1  0.21559283  0.74999999  0.25000000  1 1.431417
  Ca  Ca4  1  0.87483282  0.02591484  0.62369090  1 1.375551
  Ca  Ca5  1  0.78440717  0.25000001  0.75000000  1 1.431417
  H  H6  1  0.59051243  0.34391625  0.41049073  1 0.113055
  H  H7  1  0.50542598  0.82277213  0.08237766  1 0.110131
  H  H8  1  0.82750341  0.17349151  0.26125649  1 0.109867
  H  H9  1  0.40948757  0.65608375  0.58950927  1 0.113055
  H  H10  1  0.26225141  0.32650848  0.23874351  1 0.110137
  H  H11  1  0.82461885  0.81634420  0.65910957  1 0.107713
  H  H12  1  0.23139593  0.90507686  0.03121183  1 0.101946
  H  H13  1  0.16768462  0.59492314  0.46878816  1 0.101844
  H  H14  1  0.17249659  0.82650849  0.73874351  1 0.109867
  H  H15  1  0.65508059  0.84391625  0.91049073  1 0.112765
  H  H16  1  0.34491941  0.15608375  0.08950927  1 0.112765
  H  H17  1  0.73774859  0.67349152  0.76125649  1 0.110137
  H  H18  1  0.10806433  0.04952995  0.92498890  1 0.113248
  H  H19  1  0.91741683  0.54952995  0.42498890  1 0.113019
  H  H20  1  0.76860407  0.09492314  0.96878817  1 0.101946
  H  H21  1  0.89193567  0.95047005  0.07501110  1 0.113248
  H  H22  1  0.58942423  0.32277213  0.58237766  1 0.110256
  H  H23  1  0.69992738  0.31634420  0.15910957  1 0.10727
  H  H24  1  0.49457402  0.17722787  0.91762234  1 0.110131
  H  H25  1  0.30007262  0.68365580  0.84089043  1 0.10727
  H  H26  1  0.08258317  0.45047005  0.57501110  1 0.113018
  H  H27  1  0.83231538  0.40507686  0.53121184  1 0.101844
  H  H28  1  0.41057577  0.67722787  0.41762234  1 0.110256
  H  H29  1  0.17538115  0.18365580  0.34089043  1 0.107713
  C  C30  1  0.07497076  0.61140368  0.53343114  1 -0.079506
  C  C31  1  0.09457244  0.44679823  0.32552812  1 -0.026184
  C  C32  1  0.86689879  0.05320174  0.17447184  1 -0.027259
  C  C33  1  0.65108458  0.30130560  0.99527696  1 0.640633
  C  C34  1  0.81257742  0.15668115  0.19774692  1 -0.087286
  C  C35  1  0.97253316  0.46903502  0.40752362  1 -0.089109
  C  C36  1  0.92502924  0.38859632  0.46656887  1 -0.079506
  C  C37  1  0.02746684  0.53096498  0.59247638  1 -0.089109
  C  C38  1  0.44874372  0.58832803  0.54957916  1 -0.088121
  C  C39  1  0.32897800  0.97675718  0.19844867  1 0.59891
  C  C40  1  0.05008208  0.03115372  0.76449441  1 0.61947
  C  C41  1  0.84909186  0.03096498  0.09247637  1 -0.088839
  C  C42  1  0.49581620  0.47675718  0.69844865  1 0.598869
  C  C43  1  0.83299449  0.65668117  0.69774689  1 -0.088557
  C  C44  1  0.05233300  0.80130565  0.49527688  1 0.639625
  C  C45  1  0.58665079  0.91167199  0.95042086  1 -0.087006
  C  C46  1  0.50418380  0.52324282  0.30155135  1 0.598869
  C  C47  1  0.94766700  0.19869436  0.50472312  1 0.639625
  C  C48  1  0.16700551  0.34331883  0.30225311  1 -0.088556
  C  C49  1  0.18742258  0.84331885  0.80225308  1 -0.087287
  C  C50  1  0.99770195  0.28518366  0.44317538  1 -0.050474
  C  C51  1  0.84573026  0.46884635  0.73550564  1 0.619115
  C  C52  1  0.15426974  0.53115365  0.26449436  1 0.619116
  C  C53  1  0.34891542  0.69869440  0.00472304  1 0.640633
  C  C54  1  0.11850445  0.26321764  0.36025066  1 -0.093474
  C  C55  1  0.13310121  0.94679826  0.82552816  1 -0.027258
  C  C56  1  0.94991792  0.96884628  0.23550559  1 0.61947
  C  C57  1  0.67102200  0.02324282  0.80155133  1 0.59891
  C  C58  1  0.50457812  0.89990849  0.04585689  1 -0.0956
  C  C59  1  0.41334921  0.08832801  0.04957914  1 -0.087006
  C  C60  1  0.21980553  0.88859635  0.96656884  1 -0.080039
  C  C61  1  0.25802732  0.76321764  0.86025062  1 -0.093821
  C  C62  1  0.49542188  0.10009151  0.95414311  1 -0.0956
  C  C63  1  0.00229805  0.71481634  0.55682462  1 -0.050474
  C  C64  1  0.54965641  0.39990851  0.54585690  1 -0.095387
  C  C65  1  0.45034359  0.60009149  0.45414310  1 -0.095388
  C  C66  1  0.58248922  0.01183159  0.90404673  1 -0.02701
  C  C67  1  0.88149555  0.73678236  0.63974934  1 -0.093473
  C  C68  1  0.72606104  0.21481624  0.05682460  1 -0.050146
  C  C69  1  0.41751078  0.98816841  0.09595327  1 -0.02701
  C  C70  1  0.90542756  0.55320177  0.67447188  1 -0.026182
  C  C71  1  0.74197268  0.23678237  0.13974938  1 -0.09382
  C  C72  1  0.50163251  0.51183154  0.40404680  1 -0.026508
  C  C73  1  0.15090814  0.96903501  0.90752363  1 -0.088839
  C  C74  1  0.78019447  0.11140365  0.03343116  1 -0.080038
  C  C75  1  0.49836749  0.48816846  0.59595320  1 -0.026509
  C  C76  1  0.27393896  0.78518376  0.94317540  1 -0.050145
  C  C77  1  0.55125628  0.41167197  0.45042084  1 -0.088122
  O  O78  1  0.42464413  0.55492242  0.74721968  1 -0.607209
  O  O79  1  0.43309939  0.61187021  0.26409847  1 -0.699848
  O  O80  1  0.72678596  0.94507752  0.75278024  1 -0.606866
  O  O81  1  0.57535587  0.44507758  0.25278032  1 -0.607209
  O  O82  1  0.27321404  0.05492248  0.24721976  1 -0.606866
  O  O83  1  0.58105786  0.39210569  0.02626723  1 -0.690586
  O  O84  1  0.89634806  0.37842065  0.70719050  1 -0.627764
  O  O85  1  0.95027507  0.99543175  0.31285934  1 -0.67321
  O  O86  1  0.74143389  0.49543174  0.81285925  1 -0.673149
  O  O87  1  0.41894214  0.60789431  0.97373277  1 -0.690586
  O  O88  1  0.85294602  0.21264312  0.58758553  1 -0.669666
  O  O89  1  0.34682539  0.71264317  0.08758552  1 -0.670584
  O  O90  1  0.00056909  0.89210573  0.52626733  1 -0.690074
  O  O91  1  0.04972493  0.00456825  0.68714066  1 -0.67321
  O  O92  1  0.25856611  0.50456826  0.18714075  1 -0.673149
  O  O93  1  0.10365193  0.62157935  0.29280950  1 -0.627764
  O  O94  1  0.30906831  0.88812975  0.23590154  1 -0.699948
  O  O95  1  0.14705398  0.78735688  0.41241447  1 -0.669666
  O  O96  1  0.99943091  0.10789427  0.47373266  1 -0.690074
  O  O97  1  0.65317461  0.28735683  0.91241448  1 -0.670584
  O  O98  1  0.69093169  0.11187025  0.76409847  1 -0.699948
  O  O99  1  0.98195929  0.12157932  0.79280956  1 -0.627688
  O  O100  1  0.56690061  0.38812979  0.73590153  1 -0.699848
  O  O101  1  0.01804071  0.87842068  0.20719044  1 -0.627688
