# generated using pymatgen
data_MnH8C14SO6
_symmetry_space_group_name_H-M   'P 1'
_cell_length_a   11.28665550
_cell_length_b   20.82218014
_cell_length_c   23.85181395
_cell_angle_alpha   114.41229390
_cell_angle_beta   101.27186166
_cell_angle_gamma   95.50073597
_symmetry_Int_Tables_number   1
_chemical_formula_structural   MnH8C14SO6
_chemical_formula_sum   'Mn8 H64 C112 S8 O48'
_cell_volume   4906.95766956
_cell_formula_units_Z   8
loop_
 _symmetry_equiv_pos_site_id
 _symmetry_equiv_pos_as_xyz
  1  'x, y, z'
loop_
 _atom_site_type_symbol
 _atom_site_label
 _atom_site_symmetry_multiplicity
 _atom_site_fract_x
 _atom_site_fract_y
 _atom_site_fract_z
 _atom_site_occupancy
 _atom_site_charge
  Mn  Mn0  1  0.42134742  0.17113145  0.34239346  1 1.074881
  Mn  Mn1  1  0.65737663  0.24273736  0.29567322  1 0.992849
  Mn  Mn2  1  0.13852704  0.05300926  0.29572613  1 0.993847
  Mn  Mn3  1  0.86884581  0.11873420  0.23740701  1 1.058278
  Mn  Mn4  1  0.57865274  0.82886862  0.65760654  1 1.074965
  Mn  Mn5  1  0.34262334  0.75726267  0.70432673  1 0.992296
  Mn  Mn6  1  0.86147318  0.94699069  0.70427379  1 0.993477
  Mn  Mn7  1  0.13115397  0.88126578  0.76259287  1 1.057992
  H  H8  1  0.87342000  0.37620921  0.48202899  1 0.113898
  H  H9  1  0.94413151  0.46211325  0.59874938  1 0.115472
  H  H10  1  0.67495834  0.33588746  0.63704442  1 0.118106
  H  H11  1  0.60729587  0.24873560  0.52003460  1 0.111115
  H  H12  1  0.90705126  0.58433542  0.67216393  1 0.113314
  H  H13  1  0.78293152  0.67394557  0.65960326  1 0.117058
  H  H14  1  0.49786645  0.58962161  0.72085151  1 0.123834
  H  H15  1  0.61929404  0.49816570  0.73148393  1 0.133545
  H  H16  1  0.35366323  0.04383049  0.20023428  1 0.111418
  H  H17  1  0.24517373  0.91624980  0.13572764  1 0.110836
  H  H18  1  0.59443421  0.84813597  0.13920508  1 0.129383
  H  H19  1  0.70308453  0.97634686  0.20739142  1 0.108515
  H  H20  1  0.16459169  0.84225230  0.01966554  1 0.104402
  H  H21  1  0.14004725  0.85128113  0.91700276  1 0.112804
  H  H22  1  0.42928001  0.73224573  0.87550460  1 0.121474
  H  H23  1  0.46121447  0.72811038  0.98029260  1 0.135207
  H  H24  1  0.27700459  0.86899669  0.27999489  1 0.124303
  H  H25  1  0.38753056  0.76680073  0.26920106  1 0.133897
  H  H26  1  0.73481908  0.91166352  0.32697554  1 0.113492
  H  H27  1  0.62355068  0.01397732  0.33975784  1 0.116919
  H  H28  1  0.53800022  0.69848707  0.36279099  1 0.11837
  H  H29  1  0.58725300  0.72849122  0.47985897  1 0.110937
  H  H30  1  0.89115180  0.89413014  0.51791407  1 0.113598
  H  H31  1  0.84518273  0.86322033  0.40116888  1 0.114905
  H  H32  1  0.00464539  0.23120219  0.20740400  1 0.109044
  H  H33  1  0.04492884  0.29115822  0.13911783  1 0.129645
  H  H34  1  0.39053765  0.21938153  0.13557712  1 0.110997
  H  H35  1  0.34673546  0.15636196  0.20017948  1 0.111854
  H  H36  1  0.01839211  0.25160862  0.98016943  1 0.137536
  H  H37  1  0.94563882  0.14264785  0.87549167  1 0.121012
  H  H38  1  0.27762145  0.06607693  0.91698767  1 0.113063
  H  H39  1  0.35571352  0.17788927  0.01948402  1 0.104014
  H  H40  1  0.12658003  0.62379082  0.51797100  1 0.113766
  H  H41  1  0.05586849  0.53788676  0.40125062  1 0.115336
  H  H42  1  0.32504167  0.66411255  0.36295560  1 0.118035
  H  H43  1  0.39270410  0.75126438  0.47996541  1 0.11109
  H  H44  1  0.09294875  0.41566460  0.32783607  1 0.113336
  H  H45  1  0.21706847  0.32605443  0.34039676  1 0.11706
  H  H46  1  0.50213359  0.41037841  0.27914849  1 0.123972
  H  H47  1  0.38070597  0.50183431  0.26851608  1 0.133653
  H  H48  1  0.64633676  0.95616952  0.79976571  1 0.111424
  H  H49  1  0.75482625  0.08375018  0.86427234  1 0.110792
  H  H50  1  0.40556579  0.15186402  0.86079491  1 0.129323
  H  H51  1  0.29691550  0.02365314  0.79260858  1 0.108506
  H  H52  1  0.83540830  0.15774770  0.98033445  1 0.104483
  H  H53  1  0.85995277  0.14871885  0.08299722  1 0.112841
  H  H54  1  0.57071997  0.26775428  0.12449540  1 0.121456
  H  H55  1  0.53878553  0.27188962  0.01970739  1 0.135256
  H  H56  1  0.72299538  0.13100329  0.72000511  1 0.124158
  H  H57  1  0.61246945  0.23319927  0.73079894  1 0.133793
  H  H58  1  0.26518091  0.08833646  0.67302447  1 0.113463
  H  H59  1  0.37644936  0.98602270  0.66024218  1 0.116924
  H  H60  1  0.46199979  0.30151294  0.63720902  1 0.118447
  H  H61  1  0.41274703  0.27150881  0.52014103  1 0.11097
  H  H62  1  0.10884818  0.10586983  0.48208593  1 0.113763
  H  H63  1  0.15481728  0.13677966  0.59883112  1 0.115054
  H  H64  1  0.99535457  0.76879782  0.79259600  1 0.10905
  H  H65  1  0.95507115  0.70884179  0.86088216  1 0.129581
  H  H66  1  0.60946236  0.78061847  0.86442286  1 0.110957
  H  H67  1  0.65326456  0.84363802  0.79982050  1 0.111873
  H  H68  1  0.98160788  0.74839138  0.01983056  1 0.137588
  H  H69  1  0.05436121  0.85735214  0.12450833  1 0.12099
  H  H70  1  0.72237852  0.93392307  0.08301232  1 0.1131
  H  H71  1  0.64428651  0.82211074  0.98051598  1 0.104075
  C  C72  1  0.68745132  0.26089871  0.42471190  1 0.610676
  C  C73  1  0.73538689  0.30849755  0.49457492  1 -0.033442
  C  C74  1  0.83122627  0.36798234  0.51648901  1 -0.077616
  C  C75  1  0.86942367  0.41581995  0.58091497  1 -0.092786
  C  C76  1  0.81051810  0.40400333  0.62316352  1 -0.058945
  C  C77  1  0.71693011  0.34405663  0.60243798  1 -0.091521
  C  C78  1  0.68002210  0.29600236  0.53789791  1 -0.078358
  C  C79  1  0.76771811  0.53586888  0.70087777  1 -0.061983
  C  C80  1  0.81627436  0.58506545  0.68133017  1 -0.101344
  C  C81  1  0.74817068  0.63494382  0.67489247  1 -0.080471
  C  C82  1  0.63305614  0.63593132  0.68869993  1 -0.039513
  C  C83  1  0.58654686  0.58702558  0.70934145  1 -0.071582
  C  C84  1  0.65355016  0.53634932  0.71521871  1 -0.085467
  C  C85  1  0.56110613  0.69068604  0.68351829  1 0.600848
  C  C86  1  0.59838766  0.09381909  0.24690294  1 0.615973
  C  C87  1  0.53528185  0.01794852  0.20701755  1 -0.048563
  C  C88  1  0.40597868  0.00111897  0.18624409  1 -0.071629
  C  C89  1  0.34541725  0.93003358  0.14997193  1 -0.091737
  C  C90  1  0.41477111  0.87601462  0.13288928  1 -0.060247
  C  C91  1  0.54323100  0.89161292  0.15271756  1 -0.087215
  C  C92  1  0.60315956  0.96294687  0.19064564  1 -0.07381
  C  C93  1  0.31564779  0.78587434  0.00583376  1 -0.059801
  C  C94  1  0.22403973  0.81990828  0.98858790  1 -0.094583
  C  C95  1  0.20960950  0.82438822  0.93131000  1 -0.081786
  C  C96  1  0.28401144  0.79324447  0.89055279  1 -0.038854
  C  C97  1  0.37365848  0.75789441  0.90780941  1 -0.071905
  C  C98  1  0.39115093  0.75497669  0.96622530  1 -0.077826
  C  C99  1  0.26367737  0.79801002  0.82884238  1 0.608569
  C  C100  1  0.37777553  0.00712210  0.31658490  1 0.602636
  C  C101  1  0.44447809  0.94717608  0.31140524  1 -0.039199
  C  C102  1  0.37720079  0.87776193  0.29112909  1 -0.071815
  C  C103  1  0.43817833  0.82114564  0.28516232  1 -0.086397
  C  C104  1  0.56668839  0.83479576  0.29902927  1 -0.062427
  C  C105  1  0.63490403  0.90340293  0.31818915  1 -0.100338
  C  C106  1  0.57338394  0.95979128  0.32473690  1 -0.08097
  C  C107  1  0.68732775  0.78059630  0.37671435  1 -0.059392
  C  C108  1  0.61451887  0.74134970  0.39743114  1 -0.092004
  C  C109  1  0.64211483  0.75791882  0.46200573  1 -0.078228
  C  C110  1  0.74069439  0.81382908  0.50535123  1 -0.033679
  C  C111  1  0.81457828  0.85139664  0.48343685  1 -0.077345
  C  C112  1  0.78837625  0.83474725  0.41899631  1 -0.091843
  C  C113  1  0.76238639  0.83621890  0.57522537  1 0.612049
  C  C114  1  0.14885137  0.15313702  0.24690082  1 0.614854
  C  C115  1  0.17194968  0.18911778  0.20699238  1 -0.049868
  C  C116  1  0.08773753  0.22779948  0.19063039  1 -0.073123
  C  C117  1  0.10962955  0.26116768  0.15264641  1 -0.087551
  C  C118  1  0.21812886  0.25686803  0.13274961  1 -0.059527
  C  C119  1  0.30457613  0.21990053  0.14985439  1 -0.092328
  C  C120  1  0.28038507  0.18511483  0.18618559  1 -0.072074
  C  C121  1  0.19017584  0.21992794  0.00569980  1 -0.061404
  C  C122  1  0.07469656  0.21087870  0.96613321  1 -0.07906
  C  C123  1  0.03381057  0.14951175  0.90778108  1 -0.07228
  C  C124  1  0.10656467  0.09715994  0.89054180  1 -0.039859
  C  C125  1  0.22205216  0.10707502  0.93126252  1 -0.082285
  C  C126  1  0.26489275  0.16889647  0.98846018  1 -0.092868
  C  C127  1  0.06520072  0.03065933  0.82892590  1 0.61147
  C  C128  1  0.31254885  0.73910147  0.57528836  1 0.610511
  C  C129  1  0.26461306  0.69150238  0.50542498  1 -0.033279
  C  C130  1  0.16877377  0.63201767  0.48351096  1 -0.077743
  C  C131  1  0.13057641  0.58418006  0.41908503  1 -0.092883
  C  C132  1  0.18948191  0.59599662  0.37683643  1 -0.059128
  C  C133  1  0.28306988  0.65594335  0.39756201  1 -0.091597
  C  C134  1  0.31997782  0.70399761  0.46210207  1 -0.078424
  C  C135  1  0.23228194  0.46413106  0.29912221  1 -0.061853
  C  C136  1  0.18372566  0.41493451  0.31866981  1 -0.101323
  C  C137  1  0.25182931  0.36505618  0.32510753  1 -0.080441
  C  C138  1  0.36694398  0.36406860  0.31130008  1 -0.03968
  C  C139  1  0.41345321  0.41297442  0.29065855  1 -0.07147
  C  C140  1  0.34644985  0.46365066  0.28478128  1 -0.085392
  C  C141  1  0.43889360  0.30931417  0.31648168  1 0.601049
  C  C142  1  0.40161221  0.90618072  0.75309696  1 0.615852
  C  C143  1  0.46471824  0.98205156  0.79298248  1 -0.048488
  C  C144  1  0.59402128  0.99888105  0.81375591  1 -0.071691
  C  C145  1  0.65458273  0.06996644  0.85002809  1 -0.091788
  C  C146  1  0.58522893  0.12398541  0.86711076  1 -0.060328
  C  C147  1  0.45676901  0.10838708  0.84728245  1 -0.08728
  C  C148  1  0.39684049  0.03705314  0.80935437  1 -0.073837
  C  C149  1  0.68435224  0.21412569  0.99416631  1 -0.059615
  C  C150  1  0.77596031  0.18009173  0.01141212  1 -0.094527
  C  C151  1  0.79039053  0.17561178  0.06869000  1 -0.081686
  C  C152  1  0.71598860  0.20675553  0.10944731  1 -0.039086
  C  C153  1  0.62634149  0.24210560  0.09219060  1 -0.071835
  C  C154  1  0.60884911  0.24502332  0.03377472  1 -0.077799
  C  C155  1  0.73632258  0.20198999  0.17115737  1 0.608797
  C  C156  1  0.62222526  0.99287782  0.68341515  1 0.602443
  C  C157  1  0.55552171  0.05282401  0.68859476  1 -0.039037
  C  C158  1  0.62279911  0.12223808  0.70887091  1 -0.071916
  C  C159  1  0.56182164  0.17885437  0.71483767  1 -0.086473
  C  C160  1  0.43331153  0.16520428  0.70097070  1 -0.062575
  C  C161  1  0.36509592  0.09659710  0.68181083  1 -0.100355
  C  C162  1  0.42661608  0.04020875  0.67526311  1 -0.080993
  C  C163  1  0.31267218  0.21940370  0.62328557  1 -0.059229
  C  C164  1  0.38548111  0.25865030  0.60256883  1 -0.091916
  C  C165  1  0.35788523  0.24208118  0.53799424  1 -0.078146
  C  C166  1  0.25930551  0.18617086  0.49464863  1 -0.033818
  C  C167  1  0.18542166  0.14860332  0.51656310  1 -0.077205
  C  C168  1  0.21162370  0.16525274  0.58100368  1 -0.091736
  C  C169  1  0.23761417  0.16378140  0.42477501  1 0.612259
  C  C170  1  0.85114851  0.84686318  0.75309902  1 0.614643
  C  C171  1  0.82805028  0.81088215  0.79300769  1 -0.049711
  C  C172  1  0.91226240  0.77220052  0.80936963  1 -0.073213
  C  C173  1  0.89037045  0.73883233  0.84735360  1 -0.087594
  C  C174  1  0.78187115  0.74313197  0.86725044  1 -0.059674
  C  C175  1  0.69542391  0.78009947  0.85014564  1 -0.092368
  C  C176  1  0.71961498  0.81488514  0.81381442  1 -0.072154
  C  C177  1  0.80982422  0.78007212  0.99430030  1 -0.061237
  C  C178  1  0.92530343  0.78912132  0.03386681  1 -0.079021
  C  C179  1  0.96618950  0.85048826  0.09221895  1 -0.072227
  C  C180  1  0.89343544  0.90284017  0.10945832  1 -0.039983
  C  C181  1  0.77794781  0.89292502  0.06873750  1 -0.082238
  C  C182  1  0.73510726  0.83110354  0.01153985  1 -0.092784
  C  C183  1  0.93479863  0.96934045  0.17107371  1 0.611591
  S  S184  1  0.85298165  0.46919650  0.70510093  1 0.950751
  S  S185  1  0.33684173  0.78519127  0.08185487  1 0.949051
  S  S186  1  0.64759875  0.76383305  0.29476359  1 0.951412
  S  S187  1  0.24489817  0.29663307  0.08166384  1 0.951048
  S  S188  1  0.14701826  0.53080392  0.29489932  1 0.950805
  S  S189  1  0.66315806  0.21480850  0.91814478  1 0.949076
  S  S190  1  0.35240164  0.23616677  0.70523669  1 0.951396
  S  S191  1  0.75510170  0.70336680  0.91833578  1 0.951046
  O  O192  1  0.59280198  0.21206151  0.40627623  1 -0.561235
  O  O193  1  0.68587856  0.80599696  0.59363890  1 -0.561937
  O  O194  1  0.44005032  0.06875861  0.33154246  1 -0.570762
  O  O195  1  0.60820125  0.73727860  0.66839349  1 -0.569989
  O  O196  1  0.22702652  0.11707495  0.26016145  1 -0.568887
  O  O197  1  0.53347675  0.14310713  0.26014064  1 -0.570009
  O  O198  1  0.74353674  0.27354445  0.38708649  1 -0.57675
  O  O199  1  0.45638458  0.68757191  0.69612039  1 -0.545011
  O  O200  1  0.31890276  0.76260420  0.78788839  1 -0.542054
  O  O201  1  0.71647144  0.11079474  0.26751056  1 -0.597067
  O  O202  1  0.85617614  0.88644940  0.61288160  1 -0.577419
  O  O203  1  0.26042088  0.99151967  0.30411902  1 -0.54591
  O  O204  1  0.96900155  0.02504848  0.78786372  1 -0.543962
  O  O205  1  0.05145059  0.15676350  0.26752296  1 -0.596922
  O  O206  1  0.18884190  0.83782179  0.82089175  1 -0.583984
  O  O207  1  0.13207688  0.98292882  0.82115318  1 -0.584047
  O  O208  1  0.98263772  0.50033920  0.72156498  1 -0.514983
  O  O209  1  0.80281924  0.43728147  0.74110001  1 -0.495371
  O  O210  1  0.42059318  0.73814811  0.08587521  1 -0.481743
  O  O211  1  0.21631868  0.77731182  0.09372266  1 -0.507161
  O  O212  1  0.76073389  0.77845646  0.27826184  1 -0.515304
  O  O213  1  0.56125798  0.69598209  0.25879668  1 -0.49501
  O  O214  1  0.37734194  0.31645962  0.09362420  1 -0.508275
  O  O215  1  0.16505635  0.34759310  0.08554996  1 -0.482055
  O  O216  1  0.40719766  0.78793832  0.59372362  1 -0.561314
  O  O217  1  0.31412129  0.19400289  0.40636092  1 -0.561865
  O  O218  1  0.55994938  0.93124145  0.66845754  1 -0.570776
  O  O219  1  0.39179875  0.26272119  0.33160656  1 -0.569974
  O  O220  1  0.77297344  0.88292476  0.73983871  1 -0.568887
  O  O221  1  0.46652327  0.85689301  0.73985944  1 -0.570026
  O  O222  1  0.25646331  0.72645550  0.61291330  1 -0.576743
  O  O223  1  0.54361580  0.31242798  0.30387961  1 -0.545002
  O  O224  1  0.68109716  0.23739583  0.21211185  1 -0.54215
  O  O225  1  0.28352874  0.88920535  0.73248951  1 -0.597008
  O  O226  1  0.14382332  0.11355015  0.38711785  1 -0.577441
  O  O227  1  0.73957810  0.00848057  0.69588093  1 -0.545906
  O  O228  1  0.03099921  0.97495191  0.21213681  1 -0.543941
  O  O229  1  0.94854951  0.84323636  0.73247716  1 -0.596796
  O  O230  1  0.81115828  0.16217814  0.17910841  1 -0.584048
  O  O231  1  0.86792339  0.01707127  0.17884699  1 -0.584128
  O  O232  1  0.01736227  0.49966065  0.27843493  1 -0.51513
  O  O233  1  0.19718080  0.56271841  0.25889991  1 -0.495471
  O  O234  1  0.57940687  0.26185199  0.91412490  1 -0.481863
  O  O235  1  0.78368141  0.22268828  0.90627747  1 -0.507154
  O  O236  1  0.23926602  0.22154362  0.72173806  1 -0.515161
  O  O237  1  0.43874190  0.30401797  0.74120323  1 -0.494878
  O  O238  1  0.62265810  0.68354042  0.90637594  1 -0.508262
  O  O239  1  0.83494371  0.65240692  0.91445016  1 -0.482077
