# generated using pymatgen
data_CuH8C12(NO2)2
_symmetry_space_group_name_H-M   'P 1'
_cell_length_a   4.53660383
_cell_length_b   11.07324814
_cell_length_c   12.72771713
_cell_angle_alpha   90.72902927
_cell_angle_beta   100.26769531
_cell_angle_gamma   85.89983065
_symmetry_Int_Tables_number   1
_chemical_formula_structural   CuH8C12(NO2)2
_chemical_formula_sum   'Cu2 H16 C24 N4 O8'
_cell_volume   627.52671013
_cell_formula_units_Z   2
loop_
 _symmetry_equiv_pos_site_id
 _symmetry_equiv_pos_as_xyz
  1  'x, y, z'
loop_
 _atom_site_type_symbol
 _atom_site_label
 _atom_site_symmetry_multiplicity
 _atom_site_fract_x
 _atom_site_fract_y
 _atom_site_fract_z
 _atom_site_occupancy
 _atom_site_charge
  Cu  Cu0  1  0.39295580  0.19945431  0.22988379  1 0.747848
  Cu  Cu1  1  0.16301006  0.69945028  0.77012287  1 0.747091
  H  H2  1  0.68772066  0.59737342  0.46034777  1 0.125327
  H  H3  1  0.20894941  0.42094532  0.87031071  1 0.124521
  H  H4  1  0.46107116  0.26632718  0.00900080  1 0.098754
  H  H5  1  0.56820970  0.51310720  0.07369039  1 0.128174
  H  H6  1  0.86378808  0.37186680  0.20967225  1 0.094646
  H  H7  1  0.00041951  0.36021769  0.49029006  1 0.119652
  H  H8  1  0.93112183  0.47028955  0.66058501  1 0.10557
  H  H9  1  0.57131582  0.70668188  0.62243625  1 0.093193
  H  H10  1  0.22743907  0.09735727  0.53965448  1 0.124974
  H  H11  1  0.33866646  0.92100239  0.12965767  1 0.124667
  H  H12  1  0.45203178  0.76634503  0.99099920  1 0.098729
  H  H13  1  0.49444935  0.01315813  0.92631144  1 0.128405
  H  H14  1  0.65396920  0.87187585  0.79033609  1 0.094901
  H  H15  1  0.51015284  0.86022233  0.50973004  1 0.119564
  H  H16  1  0.27056111  0.97027600  0.33941734  1 0.105414
  H  H17  1  0.94893449  0.20666029  0.37754755  1 0.093331
  C  C18  1  0.36894255  0.46189864  0.46897897  1 -0.0006
  C  C19  1  0.43679534  0.39253235  0.37353045  1 0.544478
  C  C20  1  0.53079839  0.56254869  0.50564083  1 -0.13085
  C  C21  1  0.11966353  0.40633169  0.94252534  1 -0.130918
  C  C22  1  0.27942459  0.33010451  0.02278882  1 0.074113
  C  C23  1  0.75290804  0.45529461  0.05321961  1 -0.12603
  C  C24  1  0.85515824  0.46953937  0.95637898  1 -0.00841
  C  C25  1  0.70122249  0.55455212  0.86972939  1 0.560954
  C  C26  1  0.92943727  0.38066213  0.13204491  1 0.097924
  C  C27  1  0.14276570  0.43188047  0.52145309  1 -0.131066
  C  C28  1  0.08196221  0.49883644  0.61008103  1 0.0748
  C  C29  1  0.45329826  0.62731927  0.59296159  1 0.092797
  C  C30  1  0.89999708  0.96190056  0.53103517  1 -0.001459
  C  C31  1  0.06332874  0.89256467  0.62649220  1 0.543878
  C  C32  1  0.02520327  0.06253837  0.49436828  1 -0.129206
  C  C33  1  0.17713860  0.90636629  0.05745688  1 -0.131045
  C  C34  1  0.25658100  0.83011720  0.97720415  1 0.07447
  C  C35  1  0.69961990  0.95532727  0.94677431  1 -0.126978
  C  C36  1  0.89879815  0.96957824  0.04360757  1 -0.008438
  C  C37  1  0.83157289  0.05458827  0.13025800  1 0.561634
  C  C38  1  0.79726359  0.88067331  0.86795486  1 0.097942
  C  C39  1  0.62133697  0.93187532  0.47855452  1 -0.130579
  C  C40  1  0.47192624  0.99882475  0.38991557  1 0.074415
  C  C41  1  0.86039096  0.12730037  0.40703357  1 0.091747
  N  N42  1  0.18116783  0.31771680  0.11666785  1 -0.218893
  N  N43  1  0.24313941  0.59426207  0.64572259  1 -0.197395
  N  N44  1  0.06437477  0.81771756  0.88333729  1 -0.219114
  N  N45  1  0.59746110  0.09424676  0.35426507  1 -0.197309
  O  O46  1  0.26872500  0.30358600  0.34514388  1 -0.513375
  O  O47  1  0.82297728  0.56348554  0.78909272  1 -0.566932
  O  O48  1  0.64482479  0.42262078  0.32902484  1 -0.525638
  O  O49  1  0.45939267  0.61372389  0.88634597  1 -0.531977
  O  O50  1  0.92366493  0.80363114  0.65490951  1 -0.512978
  O  O51  1  0.03401396  0.06350593  0.21089459  1 -0.566977
  O  O52  1  0.31587977  0.92267042  0.67097195  1 -0.525151
  O  O53  1  0.57315813  0.11376729  0.11364195  1 -0.532593
