# generated using pymatgen
data_AgH12(C3N)6
_symmetry_space_group_name_H-M   'P 1'
_cell_length_a   22.61051609
_cell_length_b   15.25889929
_cell_length_c   25.57995645
_cell_angle_alpha   90.00000000
_cell_angle_beta   114.96922840
_cell_angle_gamma   90.00000000
_symmetry_Int_Tables_number   1
_chemical_formula_structural   AgH12(C3N)6
_chemical_formula_sum   'Ag16 H192 C288 N96'
_cell_volume   8000.51385390
_cell_formula_units_Z   16
loop_
 _symmetry_equiv_pos_site_id
 _symmetry_equiv_pos_as_xyz
  1  'x, y, z'
loop_
 _atom_site_type_symbol
 _atom_site_label
 _atom_site_symmetry_multiplicity
 _atom_site_fract_x
 _atom_site_fract_y
 _atom_site_fract_z
 _atom_site_occupancy
  Ag  Ag0  1  0.84265528  0.44887035  0.36683492  1
  Ag  Ag1  1  0.32783281  0.24946074  0.86809166  1
  Ag  Ag2  1  0.34265528  0.94887035  0.36683492  1
  Ag  Ag3  1  0.82783281  0.74946074  0.86809166  1
  Ag  Ag4  1  0.15734472  0.44887035  0.13316508  1
  Ag  Ag5  1  0.67216719  0.24946074  0.63190834  1
  Ag  Ag6  1  0.65734472  0.94887035  0.13316508  1
  Ag  Ag7  1  0.17216719  0.74946074  0.63190834  1
  Ag  Ag8  1  0.15734472  0.55112965  0.63316508  1
  Ag  Ag9  1  0.67216719  0.75053926  0.13190834  1
  Ag  Ag10  1  0.65734472  0.05112965  0.63316508  1
  Ag  Ag11  1  0.17216719  0.25053926  0.13190834  1
  Ag  Ag12  1  0.84265528  0.55112965  0.86683492  1
  Ag  Ag13  1  0.32783281  0.75053926  0.36809166  1
  Ag  Ag14  1  0.34265528  0.05112965  0.86683492  1
  Ag  Ag15  1  0.82783281  0.25053926  0.36809166  1
  H  H16  1  0.79950228  0.63628881  0.05062349  1
  H  H17  1  0.21613854  0.05717836  0.34180436  1
  H  H18  1  0.32616480  0.09519272  0.55193316  1
  H  H19  1  0.06012209  0.28647650  0.38929694  1
  H  H20  1  0.41791632  0.31078229  0.99191180  1
  H  H21  1  0.52415246  0.38626297  0.04762364  1
  H  H22  1  0.69019195  0.67439443  0.84047526  1
  H  H23  1  0.63338501  0.43445040  0.16054967  1
  H  H24  1  0.04499466  0.33542880  0.54896180  1
  H  H25  1  0.63134702  0.59451486  0.89011806  1
  H  H26  1  0.95678225  0.37163702  0.33901939  1
  H  H27  1  0.37695694  0.01406652  0.49650396  1
  H  H28  1  0.94033542  0.41397842  0.49261331  1
  H  H29  1  0.85277686  0.71185915  0.99509921  1
  H  H30  1  0.86107242  0.52772823  0.26687606  1
  H  H31  1  0.15949998  0.14221517  0.39122854  1
  H  H32  1  0.52688169  0.45780412  0.88599308  1
  H  H33  1  0.16329648  0.31493711  0.65811494  1
  H  H34  1  0.80705581  0.54934221  0.15998104  1
  H  H35  1  0.42110443  0.37571872  0.83598249  1
  H  H36  1  0.32468836  0.15977171  0.66397327  1
  H  H37  1  0.37621097  0.17904717  0.77160145  1
  H  H38  1  0.22160405  0.33051404  0.76559774  1
  H  H39  1  0.69344576  0.41847539  0.26766516  1
  H  H40  1  0.29950228  0.13628881  0.05062349  1
  H  H41  1  0.71613854  0.55717836  0.34180436  1
  H  H42  1  0.82616480  0.59519272  0.55193316  1
  H  H43  1  0.56012209  0.78647650  0.38929694  1
  H  H44  1  0.91791632  0.81078229  0.99191180  1
  H  H45  1  0.02415246  0.88626297  0.04762364  1
  H  H46  1  0.19019195  0.17439443  0.84047526  1
  H  H47  1  0.13338501  0.93445040  0.16054967  1
  H  H48  1  0.54499466  0.83542880  0.54896180  1
  H  H49  1  0.13134702  0.09451486  0.89011806  1
  H  H50  1  0.45678225  0.87163702  0.33901939  1
  H  H51  1  0.87695694  0.51406652  0.49650396  1
  H  H52  1  0.44033542  0.91397842  0.49261331  1
  H  H53  1  0.35277686  0.21185915  0.99509921  1
  H  H54  1  0.36107242  0.02772823  0.26687606  1
  H  H55  1  0.65949998  0.64221517  0.39122854  1
  H  H56  1  0.02688169  0.95780412  0.88599308  1
  H  H57  1  0.66329648  0.81493711  0.65811494  1
  H  H58  1  0.30705581  0.04934221  0.15998104  1
  H  H59  1  0.92110443  0.87571872  0.83598249  1
  H  H60  1  0.82468836  0.65977171  0.66397327  1
  H  H61  1  0.87621097  0.67904717  0.77160145  1
  H  H62  1  0.72160405  0.83051404  0.76559774  1
  H  H63  1  0.19344576  0.91847539  0.26766516  1
  H  H64  1  0.20049772  0.63628881  0.44937651  1
  H  H65  1  0.78386146  0.05717836  0.15819564  1
  H  H66  1  0.67383520  0.09519272  0.94806684  1
  H  H67  1  0.93987791  0.28647650  0.11070306  1
  H  H68  1  0.58208368  0.31078229  0.50808820  1
  H  H69  1  0.47584754  0.38626297  0.45237636  1
  H  H70  1  0.30980805  0.67439443  0.65952474  1
  H  H71  1  0.36661499  0.43445040  0.33945033  1
  H  H72  1  0.95500534  0.33542880  0.95103820  1
  H  H73  1  0.36865298  0.59451486  0.60988194  1
  H  H74  1  0.04321775  0.37163702  0.16098061  1
  H  H75  1  0.62304306  0.01406652  0.00349604  1
  H  H76  1  0.05966458  0.41397842  0.00738669  1
  H  H77  1  0.14722314  0.71185915  0.50490079  1
  H  H78  1  0.13892758  0.52772823  0.23312394  1
  H  H79  1  0.84050002  0.14221517  0.10877146  1
  H  H80  1  0.47311831  0.45780412  0.61400692  1
  H  H81  1  0.83670352  0.31493711  0.84188506  1
  H  H82  1  0.19294419  0.54934221  0.34001896  1
  H  H83  1  0.57889557  0.37571872  0.66401751  1
  H  H84  1  0.67531164  0.15977171  0.83602673  1
  H  H85  1  0.62378903  0.17904717  0.72839855  1
  H  H86  1  0.77839595  0.33051404  0.73440226  1
  H  H87  1  0.30655424  0.41847539  0.23233484  1
  H  H88  1  0.70049772  0.13628881  0.44937651  1
  H  H89  1  0.28386146  0.55717836  0.15819564  1
  H  H90  1  0.17383520  0.59519272  0.94806684  1
  H  H91  1  0.43987791  0.78647650  0.11070306  1
  H  H92  1  0.08208368  0.81078229  0.50808820  1
  H  H93  1  0.97584754  0.88626297  0.45237636  1
  H  H94  1  0.80980805  0.17439443  0.65952474  1
  H  H95  1  0.86661499  0.93445040  0.33945033  1
  H  H96  1  0.45500534  0.83542880  0.95103820  1
  H  H97  1  0.86865298  0.09451486  0.60988194  1
  H  H98  1  0.54321775  0.87163702  0.16098061  1
  H  H99  1  0.12304306  0.51406652  0.00349604  1
  H  H100  1  0.55966458  0.91397842  0.00738669  1
  H  H101  1  0.64722314  0.21185915  0.50490079  1
  H  H102  1  0.63892758  0.02772823  0.23312394  1
  H  H103  1  0.34050002  0.64221517  0.10877146  1
  H  H104  1  0.97311831  0.95780412  0.61400692  1
  H  H105  1  0.33670352  0.81493711  0.84188506  1
  H  H106  1  0.69294419  0.04934221  0.34001896  1
  H  H107  1  0.07889557  0.87571872  0.66401751  1
  H  H108  1  0.17531164  0.65977171  0.83602673  1
  H  H109  1  0.12378903  0.67904717  0.72839855  1
  H  H110  1  0.27839595  0.83051404  0.73440226  1
  H  H111  1  0.80655424  0.91847539  0.23233484  1
  H  H112  1  0.20049772  0.36371119  0.94937651  1
  H  H113  1  0.78386146  0.94282164  0.65819564  1
  H  H114  1  0.67383520  0.90480728  0.44806684  1
  H  H115  1  0.93987791  0.71352350  0.61070306  1
  H  H116  1  0.58208368  0.68921771  0.00808820  1
  H  H117  1  0.47584754  0.61373703  0.95237636  1
  H  H118  1  0.30980805  0.32560557  0.15952474  1
  H  H119  1  0.36661499  0.56554960  0.83945033  1
  H  H120  1  0.95500534  0.66457120  0.45103820  1
  H  H121  1  0.36865298  0.40548514  0.10988194  1
  H  H122  1  0.04321775  0.62836298  0.66098061  1
  H  H123  1  0.62304306  0.98593348  0.50349604  1
  H  H124  1  0.05966458  0.58602158  0.50738669  1
  H  H125  1  0.14722314  0.28814085  0.00490079  1
  H  H126  1  0.13892758  0.47227177  0.73312394  1
  H  H127  1  0.84050002  0.85778483  0.60877146  1
  H  H128  1  0.47311831  0.54219588  0.11400692  1
  H  H129  1  0.83670352  0.68506289  0.34188506  1
  H  H130  1  0.19294419  0.45065779  0.84001896  1
  H  H131  1  0.57889557  0.62428128  0.16401751  1
  H  H132  1  0.67531164  0.84022829  0.33602673  1
  H  H133  1  0.62378903  0.82095283  0.22839855  1
  H  H134  1  0.77839595  0.66948596  0.23440226  1
  H  H135  1  0.30655424  0.58152461  0.73233484  1
  H  H136  1  0.70049772  0.86371119  0.94937651  1
  H  H137  1  0.28386146  0.44282164  0.65819564  1
  H  H138  1  0.17383520  0.40480728  0.44806684  1
  H  H139  1  0.43987791  0.21352350  0.61070306  1
  H  H140  1  0.08208368  0.18921771  0.00808820  1
  H  H141  1  0.97584754  0.11373703  0.95237636  1
  H  H142  1  0.80980805  0.82560557  0.15952474  1
  H  H143  1  0.86661499  0.06554960  0.83945033  1
  H  H144  1  0.45500534  0.16457120  0.45103820  1
  H  H145  1  0.86865298  0.90548514  0.10988194  1
  H  H146  1  0.54321775  0.12836298  0.66098061  1
  H  H147  1  0.12304306  0.48593348  0.50349604  1
  H  H148  1  0.55966458  0.08602158  0.50738669  1
  H  H149  1  0.64722314  0.78814085  0.00490079  1
  H  H150  1  0.63892758  0.97227177  0.73312394  1
  H  H151  1  0.34050002  0.35778483  0.60877146  1
  H  H152  1  0.97311831  0.04219588  0.11400692  1
  H  H153  1  0.33670352  0.18506289  0.34188506  1
  H  H154  1  0.69294419  0.95065779  0.84001896  1
  H  H155  1  0.07889557  0.12428128  0.16401751  1
  H  H156  1  0.17531164  0.34022829  0.33602673  1
  H  H157  1  0.12378903  0.32095283  0.22839855  1
  H  H158  1  0.27839595  0.16948596  0.23440226  1
  H  H159  1  0.80655424  0.08152461  0.73233484  1
  H  H160  1  0.79950228  0.36371119  0.55062349  1
  H  H161  1  0.21613854  0.94282164  0.84180436  1
  H  H162  1  0.32616480  0.90480728  0.05193316  1
  H  H163  1  0.06012209  0.71352350  0.88929694  1
  H  H164  1  0.41791632  0.68921771  0.49191180  1
  H  H165  1  0.52415246  0.61373703  0.54762364  1
  H  H166  1  0.69019195  0.32560557  0.34047526  1
  H  H167  1  0.63338501  0.56554960  0.66054967  1
  H  H168  1  0.04499466  0.66457120  0.04896180  1
  H  H169  1  0.63134702  0.40548514  0.39011806  1
  H  H170  1  0.95678225  0.62836298  0.83901939  1
  H  H171  1  0.37695694  0.98593348  0.99650396  1
  H  H172  1  0.94033542  0.58602158  0.99261331  1
  H  H173  1  0.85277686  0.28814085  0.49509921  1
  H  H174  1  0.86107242  0.47227177  0.76687606  1
  H  H175  1  0.15949998  0.85778483  0.89122854  1
  H  H176  1  0.52688169  0.54219588  0.38599308  1
  H  H177  1  0.16329648  0.68506289  0.15811494  1
  H  H178  1  0.80705581  0.45065779  0.65998104  1
  H  H179  1  0.42110443  0.62428128  0.33598249  1
  H  H180  1  0.32468836  0.84022829  0.16397327  1
  H  H181  1  0.37621097  0.82095283  0.27160145  1
  H  H182  1  0.22160405  0.66948596  0.26559774  1
  H  H183  1  0.69344576  0.58152461  0.76766516  1
  H  H184  1  0.29950228  0.86371119  0.55062349  1
  H  H185  1  0.71613854  0.44282164  0.84180436  1
  H  H186  1  0.82616480  0.40480728  0.05193316  1
  H  H187  1  0.56012209  0.21352350  0.88929694  1
  H  H188  1  0.91791632  0.18921771  0.49191180  1
  H  H189  1  0.02415246  0.11373703  0.54762364  1
  H  H190  1  0.19019195  0.82560557  0.34047526  1
  H  H191  1  0.13338501  0.06554960  0.66054967  1
  H  H192  1  0.54499466  0.16457120  0.04896180  1
  H  H193  1  0.13134702  0.90548514  0.39011806  1
  H  H194  1  0.45678225  0.12836298  0.83901939  1
  H  H195  1  0.87695694  0.48593348  0.99650396  1
  H  H196  1  0.44033542  0.08602158  0.99261331  1
  H  H197  1  0.35277686  0.78814085  0.49509921  1
  H  H198  1  0.36107242  0.97227177  0.76687606  1
  H  H199  1  0.65949998  0.35778483  0.89122854  1
  H  H200  1  0.02688169  0.04219588  0.38599308  1
  H  H201  1  0.66329648  0.18506289  0.15811494  1
  H  H202  1  0.30705581  0.95065779  0.65998104  1
  H  H203  1  0.92110443  0.12428128  0.33598249  1
  H  H204  1  0.82468836  0.34022829  0.16397327  1
  H  H205  1  0.87621097  0.32095283  0.27160145  1
  H  H206  1  0.72160405  0.16948596  0.26559774  1
  H  H207  1  0.19344576  0.08152461  0.76766516  1
  C  C208  1  0.12137683  0.25497425  0.50493451  1
  C  C209  1  0.77445650  0.64274075  0.00396952  1
  C  C210  1  0.59643409  0.47296739  0.00305368  1
  C  C211  1  0.23874486  0.06648230  0.38845304  1
  C  C212  1  0.30032481  0.08719690  0.50545504  1
  C  C213  1  0.03450638  0.31428542  0.41313321  1
  C  C214  1  0.06059403  0.30273609  0.47337755  1
  C  C215  1  0.44393872  0.34260431  0.96970285  1
  C  C216  1  0.50245420  0.38519370  0.00074874  1
  C  C217  1  0.71283647  0.66418345  0.88701490  1
  C  C218  1  0.20634220  0.22263954  0.59033965  1
  C  C219  1  0.53416357  0.42759161  0.97105253  1
  C  C220  1  0.68355127  0.45701703  0.18323538  1
  C  C221  1  0.23915469  0.23424271  0.65288636  1
  C  C222  1  0.02600156  0.34130169  0.50228809  1
  C  C223  1  0.68050464  0.55685582  0.00478867  1
  C  C224  1  0.68222725  0.50384288  0.08872660  1
  C  C225  1  0.71136375  0.60738198  0.97456216  1
  C  C226  1  0.68024503  0.62044941  0.91437455  1
  C  C227  1  0.97715784  0.36089854  0.38543756  1
  C  C228  1  0.32821225  0.04187507  0.47456665  1
  C  C229  1  0.96832826  0.38537720  0.47110196  1
  C  C230  1  0.80373110  0.68494346  0.97321814  1
  C  C231  1  0.20711229  0.17483533  0.50637315  1
  C  C232  1  0.23813234  0.12464094  0.47589142  1
  C  C233  1  0.81033659  0.50843534  0.24185771  1
  C  C234  1  0.20733532  0.11342353  0.41565755  1
  C  C235  1  0.50391859  0.42499595  0.91043259  1
  C  C236  1  0.71505815  0.49461334  0.15138037  1
  C  C237  1  0.21018800  0.28341919  0.68233644  1
  C  C238  1  0.78045536  0.52078233  0.18274715  1
  C  C239  1  0.44567202  0.37987213  0.88291878  1
  C  C240  1  0.30094298  0.19778503  0.68566817  1
  C  C241  1  0.32933193  0.20898660  0.74492155  1
  C  C242  1  0.24236006  0.29195278  0.74159890  1
  C  C243  1  0.71707851  0.44788636  0.24249313  1
  C  C244  1  0.62137683  0.75497425  0.50493451  1
  C  C245  1  0.27445650  0.14274075  0.00396952  1
  C  C246  1  0.09643409  0.97296739  0.00305368  1
  C  C247  1  0.73874486  0.56648230  0.38845304  1
  C  C248  1  0.80032481  0.58719690  0.50545504  1
  C  C249  1  0.53450638  0.81428542  0.41313321  1
  C  C250  1  0.56059403  0.80273609  0.47337755  1
  C  C251  1  0.94393872  0.84260431  0.96970285  1
  C  C252  1  0.00245420  0.88519370  0.00074874  1
  C  C253  1  0.21283647  0.16418345  0.88701490  1
  C  C254  1  0.70634220  0.72263954  0.59033965  1
  C  C255  1  0.03416357  0.92759161  0.97105253  1
  C  C256  1  0.18355127  0.95701703  0.18323538  1
  C  C257  1  0.73915469  0.73424271  0.65288636  1
  C  C258  1  0.52600156  0.84130169  0.50228809  1
  C  C259  1  0.18050464  0.05685582  0.00478867  1
  C  C260  1  0.18222725  0.00384288  0.08872660  1
  C  C261  1  0.21136375  0.10738198  0.97456216  1
  C  C262  1  0.18024503  0.12044941  0.91437455  1
  C  C263  1  0.47715784  0.86089854  0.38543756  1
  C  C264  1  0.82821225  0.54187507  0.47456665  1
  C  C265  1  0.46832826  0.88537720  0.47110196  1
  C  C266  1  0.30373110  0.18494346  0.97321814  1
  C  C267  1  0.70711229  0.67483533  0.50637315  1
  C  C268  1  0.73813234  0.62464094  0.47589142  1
  C  C269  1  0.31033659  0.00843534  0.24185771  1
  C  C270  1  0.70733532  0.61342353  0.41565755  1
  C  C271  1  0.00391859  0.92499595  0.91043259  1
  C  C272  1  0.21505815  0.99461334  0.15138037  1
  C  C273  1  0.71018800  0.78341919  0.68233644  1
  C  C274  1  0.28045536  0.02078233  0.18274715  1
  C  C275  1  0.94567202  0.87987213  0.88291878  1
  C  C276  1  0.80094298  0.69778503  0.68566817  1
  C  C277  1  0.82933193  0.70898660  0.74492155  1
  C  C278  1  0.74236006  0.79195278  0.74159890  1
  C  C279  1  0.21707851  0.94788636  0.24249313  1
  C  C280  1  0.87862317  0.25497425  0.99506549  1
  C  C281  1  0.22554350  0.64274075  0.49603048  1
  C  C282  1  0.40356591  0.47296739  0.49694632  1
  C  C283  1  0.76125514  0.06648230  0.11154696  1
  C  C284  1  0.69967519  0.08719690  0.99454496  1
  C  C285  1  0.96549362  0.31428542  0.08686679  1
  C  C286  1  0.93940597  0.30273609  0.02662245  1
  C  C287  1  0.55606128  0.34260431  0.53029715  1
  C  C288  1  0.49754580  0.38519370  0.49925126  1
  C  C289  1  0.28716353  0.66418345  0.61298510  1
  C  C290  1  0.79365780  0.22263954  0.90966035  1
  C  C291  1  0.46583643  0.42759161  0.52894747  1
  C  C292  1  0.31644873  0.45701703  0.31676462  1
  C  C293  1  0.76084531  0.23424271  0.84711364  1
  C  C294  1  0.97399844  0.34130169  0.99771191  1
  C  C295  1  0.31949536  0.55685582  0.49521133  1
  C  C296  1  0.31777275  0.50384288  0.41127340  1
  C  C297  1  0.28863625  0.60738198  0.52543784  1
  C  C298  1  0.31975497  0.62044941  0.58562545  1
  C  C299  1  0.02284216  0.36089854  0.11456244  1
  C  C300  1  0.67178775  0.04187507  0.02543335  1
  C  C301  1  0.03167174  0.38537720  0.02889804  1
  C  C302  1  0.19626890  0.68494346  0.52678186  1
  C  C303  1  0.79288771  0.17483533  0.99362685  1
  C  C304  1  0.76186766  0.12464094  0.02410858  1
  C  C305  1  0.18966341  0.50843534  0.25814229  1
  C  C306  1  0.79266468  0.11342353  0.08434245  1
  C  C307  1  0.49608141  0.42499595  0.58956741  1
  C  C308  1  0.28494185  0.49461334  0.34861963  1
  C  C309  1  0.78981200  0.28341919  0.81766356  1
  C  C310  1  0.21954464  0.52078233  0.31725285  1
  C  C311  1  0.55432798  0.37987213  0.61708122  1
  C  C312  1  0.69905702  0.19778503  0.81433183  1
  C  C313  1  0.67066807  0.20898660  0.75507845  1
  C  C314  1  0.75763994  0.29195278  0.75840110  1
  C  C315  1  0.28292149  0.44788636  0.25750687  1
  C  C316  1  0.37862317  0.75497425  0.99506549  1
  C  C317  1  0.72554350  0.14274075  0.49603048  1
  C  C318  1  0.90356591  0.97296739  0.49694632  1
  C  C319  1  0.26125514  0.56648230  0.11154696  1
  C  C320  1  0.19967519  0.58719690  0.99454496  1
  C  C321  1  0.46549362  0.81428542  0.08686679  1
  C  C322  1  0.43940597  0.80273609  0.02662245  1
  C  C323  1  0.05606128  0.84260431  0.53029715  1
  C  C324  1  0.99754580  0.88519370  0.49925126  1
  C  C325  1  0.78716353  0.16418345  0.61298510  1
  C  C326  1  0.29365780  0.72263954  0.90966035  1
  C  C327  1  0.96583643  0.92759161  0.52894747  1
  C  C328  1  0.81644873  0.95701703  0.31676462  1
  C  C329  1  0.26084531  0.73424271  0.84711364  1
  C  C330  1  0.47399844  0.84130169  0.99771191  1
  C  C331  1  0.81949536  0.05685582  0.49521133  1
  C  C332  1  0.81777275  0.00384288  0.41127340  1
  C  C333  1  0.78863625  0.10738198  0.52543784  1
  C  C334  1  0.81975497  0.12044941  0.58562545  1
  C  C335  1  0.52284216  0.86089854  0.11456244  1
  C  C336  1  0.17178775  0.54187507  0.02543335  1
  C  C337  1  0.53167174  0.88537720  0.02889804  1
  C  C338  1  0.69626890  0.18494346  0.52678186  1
  C  C339  1  0.29288771  0.67483533  0.99362685  1
  C  C340  1  0.26186766  0.62464094  0.02410858  1
  C  C341  1  0.68966341  0.00843534  0.25814229  1
  C  C342  1  0.29266468  0.61342353  0.08434245  1
  C  C343  1  0.99608141  0.92499595  0.58956741  1
  C  C344  1  0.78494185  0.99461334  0.34861963  1
  C  C345  1  0.28981200  0.78341919  0.81766356  1
  C  C346  1  0.71954464  0.02078233  0.31725285  1
  C  C347  1  0.05432798  0.87987213  0.61708122  1
  C  C348  1  0.19905702  0.69778503  0.81433183  1
  C  C349  1  0.17066807  0.70898660  0.75507845  1
  C  C350  1  0.25763994  0.79195278  0.75840110  1
  C  C351  1  0.78292149  0.94788636  0.25750687  1
  C  C352  1  0.87862317  0.74502575  0.49506549  1
  C  C353  1  0.22554350  0.35725925  0.99603048  1
  C  C354  1  0.40356591  0.52703261  0.99694632  1
  C  C355  1  0.76125514  0.93351770  0.61154696  1
  C  C356  1  0.69967519  0.91280310  0.49454496  1
  C  C357  1  0.96549362  0.68571458  0.58686679  1
  C  C358  1  0.93940597  0.69726391  0.52662245  1
  C  C359  1  0.55606128  0.65739569  0.03029715  1
  C  C360  1  0.49754580  0.61480630  0.99925126  1
  C  C361  1  0.28716353  0.33581655  0.11298510  1
  C  C362  1  0.79365780  0.77736046  0.40966035  1
  C  C363  1  0.46583643  0.57240839  0.02894747  1
  C  C364  1  0.31644873  0.54298297  0.81676462  1
  C  C365  1  0.76084531  0.76575729  0.34711364  1
  C  C366  1  0.97399844  0.65869831  0.49771191  1
  C  C367  1  0.31949536  0.44314418  0.99521133  1
  C  C368  1  0.31777275  0.49615712  0.91127340  1
  C  C369  1  0.28863625  0.39261802  0.02543784  1
  C  C370  1  0.31975497  0.37955059  0.08562545  1
  C  C371  1  0.02284216  0.63910146  0.61456244  1
  C  C372  1  0.67178775  0.95812493  0.52543335  1
  C  C373  1  0.03167174  0.61462280  0.52889804  1
  C  C374  1  0.19626890  0.31505654  0.02678186  1
  C  C375  1  0.79288771  0.82516467  0.49362685  1
  C  C376  1  0.76186766  0.87535906  0.52410858  1
  C  C377  1  0.18966341  0.49156466  0.75814229  1
  C  C378  1  0.79266468  0.88657647  0.58434245  1
  C  C379  1  0.49608141  0.57500405  0.08956741  1
  C  C380  1  0.28494185  0.50538666  0.84861963  1
  C  C381  1  0.78981200  0.71658081  0.31766356  1
  C  C382  1  0.21954464  0.47921767  0.81725285  1
  C  C383  1  0.55432798  0.62012787  0.11708122  1
  C  C384  1  0.69905702  0.80221497  0.31433183  1
  C  C385  1  0.67066807  0.79101340  0.25507845  1
  C  C386  1  0.75763994  0.70804722  0.25840110  1
  C  C387  1  0.28292149  0.55211364  0.75750687  1
  C  C388  1  0.37862317  0.24502575  0.49506549  1
  C  C389  1  0.72554350  0.85725925  0.99603048  1
  C  C390  1  0.90356591  0.02703261  0.99694632  1
  C  C391  1  0.26125514  0.43351770  0.61154696  1
  C  C392  1  0.19967519  0.41280310  0.49454496  1
  C  C393  1  0.46549362  0.18571458  0.58686679  1
  C  C394  1  0.43940597  0.19726391  0.52662245  1
  C  C395  1  0.05606128  0.15739569  0.03029715  1
  C  C396  1  0.99754580  0.11480630  0.99925126  1
  C  C397  1  0.78716353  0.83581655  0.11298510  1
  C  C398  1  0.29365780  0.27736046  0.40966035  1
  C  C399  1  0.96583643  0.07240839  0.02894747  1
  C  C400  1  0.81644873  0.04298297  0.81676462  1
  C  C401  1  0.26084531  0.26575729  0.34711364  1
  C  C402  1  0.47399844  0.15869831  0.49771191  1
  C  C403  1  0.81949536  0.94314418  0.99521133  1
  C  C404  1  0.81777275  0.99615712  0.91127340  1
  C  C405  1  0.78863625  0.89261802  0.02543784  1
  C  C406  1  0.81975497  0.87955059  0.08562545  1
  C  C407  1  0.52284216  0.13910146  0.61456244  1
  C  C408  1  0.17178775  0.45812493  0.52543335  1
  C  C409  1  0.53167174  0.11462280  0.52889804  1
  C  C410  1  0.69626890  0.81505654  0.02678186  1
  C  C411  1  0.29288771  0.32516467  0.49362685  1
  C  C412  1  0.26186766  0.37535906  0.52410858  1
  C  C413  1  0.68966341  0.99156466  0.75814229  1
  C  C414  1  0.29266468  0.38657647  0.58434245  1
  C  C415  1  0.99608141  0.07500405  0.08956741  1
  C  C416  1  0.78494185  0.00538666  0.84861963  1
  C  C417  1  0.28981200  0.21658081  0.31766356  1
  C  C418  1  0.71954464  0.97921767  0.81725285  1
  C  C419  1  0.05432798  0.12012787  0.11708122  1
  C  C420  1  0.19905702  0.30221497  0.31433183  1
  C  C421  1  0.17066807  0.29101340  0.25507845  1
  C  C422  1  0.25763994  0.20804722  0.25840110  1
  C  C423  1  0.78292149  0.05211364  0.75750687  1
  C  C424  1  0.12137683  0.74502575  0.00493451  1
  C  C425  1  0.77445650  0.35725925  0.50396952  1
  C  C426  1  0.59643409  0.52703261  0.50305368  1
  C  C427  1  0.23874486  0.93351770  0.88845304  1
  C  C428  1  0.30032481  0.91280310  0.00545504  1
  C  C429  1  0.03450638  0.68571458  0.91313321  1
  C  C430  1  0.06059403  0.69726391  0.97337755  1
  C  C431  1  0.44393872  0.65739569  0.46970285  1
  C  C432  1  0.50245420  0.61480630  0.50074874  1
  C  C433  1  0.71283647  0.33581655  0.38701490  1
  C  C434  1  0.20634220  0.77736046  0.09033965  1
  C  C435  1  0.53416357  0.57240839  0.47105253  1
  C  C436  1  0.68355127  0.54298297  0.68323538  1
  C  C437  1  0.23915469  0.76575729  0.15288636  1
  C  C438  1  0.02600156  0.65869831  0.00228809  1
  C  C439  1  0.68050464  0.44314418  0.50478867  1
  C  C440  1  0.68222725  0.49615712  0.58872660  1
  C  C441  1  0.71136375  0.39261802  0.47456216  1
  C  C442  1  0.68024503  0.37955059  0.41437455  1
  C  C443  1  0.97715784  0.63910146  0.88543756  1
  C  C444  1  0.32821225  0.95812493  0.97456665  1
  C  C445  1  0.96832826  0.61462280  0.97110196  1
  C  C446  1  0.80373110  0.31505654  0.47321814  1
  C  C447  1  0.20711229  0.82516467  0.00637315  1
  C  C448  1  0.23813234  0.87535906  0.97589142  1
  C  C449  1  0.81033659  0.49156466  0.74185771  1
  C  C450  1  0.20733532  0.88657647  0.91565755  1
  C  C451  1  0.50391859  0.57500405  0.41043259  1
  C  C452  1  0.71505815  0.50538666  0.65138037  1
  C  C453  1  0.21018800  0.71658081  0.18233644  1
  C  C454  1  0.78045536  0.47921767  0.68274715  1
  C  C455  1  0.44567202  0.62012787  0.38291878  1
  C  C456  1  0.30094298  0.80221497  0.18566817  1
  C  C457  1  0.32933193  0.79101340  0.24492155  1
  C  C458  1  0.24236006  0.70804722  0.24159890  1
  C  C459  1  0.71707851  0.55211364  0.74249313  1
  C  C460  1  0.62137683  0.24502575  0.00493451  1
  C  C461  1  0.27445650  0.85725925  0.50396952  1
  C  C462  1  0.09643409  0.02703261  0.50305368  1
  C  C463  1  0.73874486  0.43351770  0.88845304  1
  C  C464  1  0.80032481  0.41280310  0.00545504  1
  C  C465  1  0.53450638  0.18571458  0.91313321  1
  C  C466  1  0.56059403  0.19726391  0.97337755  1
  C  C467  1  0.94393872  0.15739569  0.46970285  1
  C  C468  1  0.00245420  0.11480630  0.50074874  1
  C  C469  1  0.21283647  0.83581655  0.38701490  1
  C  C470  1  0.70634220  0.27736046  0.09033965  1
  C  C471  1  0.03416357  0.07240839  0.47105253  1
  C  C472  1  0.18355127  0.04298297  0.68323538  1
  C  C473  1  0.73915469  0.26575729  0.15288636  1
  C  C474  1  0.52600156  0.15869831  0.00228809  1
  C  C475  1  0.18050464  0.94314418  0.50478867  1
  C  C476  1  0.18222725  0.99615712  0.58872660  1
  C  C477  1  0.21136375  0.89261802  0.47456216  1
  C  C478  1  0.18024503  0.87955059  0.41437455  1
  C  C479  1  0.47715784  0.13910146  0.88543756  1
  C  C480  1  0.82821225  0.45812493  0.97456665  1
  C  C481  1  0.46832826  0.11462280  0.97110196  1
  C  C482  1  0.30373110  0.81505654  0.47321814  1
  C  C483  1  0.70711229  0.32516467  0.00637315  1
  C  C484  1  0.73813234  0.37535906  0.97589142  1
  C  C485  1  0.31033659  0.99156466  0.74185771  1
  C  C486  1  0.70733532  0.38657647  0.91565755  1
  C  C487  1  0.00391859  0.07500405  0.41043259  1
  C  C488  1  0.21505815  0.00538666  0.65138037  1
  C  C489  1  0.71018800  0.21658081  0.18233644  1
  C  C490  1  0.28045536  0.97921767  0.68274715  1
  C  C491  1  0.94567202  0.12012787  0.38291878  1
  C  C492  1  0.80094298  0.30221497  0.18566817  1
  C  C493  1  0.82933193  0.29101340  0.24492155  1
  C  C494  1  0.74236006  0.20804722  0.24159890  1
  C  C495  1  0.21707851  0.05211364  0.74249313  1
  N  N496  1  0.94261575  0.39558080  0.41292264  1
  N  N497  1  0.29875063  0.03099876  0.41677007  1
  N  N498  1  0.30098061  0.25471541  0.77349809  1
  N  N499  1  0.14644346  0.25806510  0.56314229  1
  N  N500  1  0.14922466  0.21353789  0.47437853  1
  N  N501  1  0.23869352  0.17935375  0.56456865  1
  N  N502  1  0.41533237  0.33868627  0.91165531  1
  N  N503  1  0.77452117  0.69535406  0.91512028  1
  N  N504  1  0.78005872  0.47283860  0.27267550  1
  N  N505  1  0.62374920  0.46409916  0.06090789  1
  N  N506  1  0.62211470  0.51890541  0.97256152  1
  N  N507  1  0.71280645  0.55054719  0.06267326  1
  N  N508  1  0.44261575  0.89558080  0.41292264  1
  N  N509  1  0.79875063  0.53099876  0.41677007  1
  N  N510  1  0.80098061  0.75471541  0.77349809  1
  N  N511  1  0.64644346  0.75806510  0.56314229  1
  N  N512  1  0.64922466  0.71353789  0.47437853  1
  N  N513  1  0.73869352  0.67935375  0.56456865  1
  N  N514  1  0.91533237  0.83868627  0.91165531  1
  N  N515  1  0.27452117  0.19535406  0.91512028  1
  N  N516  1  0.28005872  0.97283860  0.27267550  1
  N  N517  1  0.12374920  0.96409916  0.06090789  1
  N  N518  1  0.12211470  0.01890541  0.97256152  1
  N  N519  1  0.21280645  0.05054719  0.06267326  1
  N  N520  1  0.05738425  0.39558080  0.08707736  1
  N  N521  1  0.70124937  0.03099876  0.08322993  1
  N  N522  1  0.69901939  0.25471541  0.72650191  1
  N  N523  1  0.85355654  0.25806510  0.93685771  1
  N  N524  1  0.85077534  0.21353789  0.02562147  1
  N  N525  1  0.76130648  0.17935375  0.93543135  1
  N  N526  1  0.58466763  0.33868627  0.58834469  1
  N  N527  1  0.22547883  0.69535406  0.58487972  1
  N  N528  1  0.21994128  0.47283860  0.22732450  1
  N  N529  1  0.37625080  0.46409916  0.43909211  1
  N  N530  1  0.37788530  0.51890541  0.52743848  1
  N  N531  1  0.28719355  0.55054719  0.43732674  1
  N  N532  1  0.55738425  0.89558080  0.08707736  1
  N  N533  1  0.20124937  0.53099876  0.08322993  1
  N  N534  1  0.19901939  0.75471541  0.72650191  1
  N  N535  1  0.35355654  0.75806510  0.93685771  1
  N  N536  1  0.35077534  0.71353789  0.02562147  1
  N  N537  1  0.26130648  0.67935375  0.93543135  1
  N  N538  1  0.08466763  0.83868627  0.58834469  1
  N  N539  1  0.72547883  0.19535406  0.58487972  1
  N  N540  1  0.71994128  0.97283860  0.22732450  1
  N  N541  1  0.87625080  0.96409916  0.43909211  1
  N  N542  1  0.87788530  0.01890541  0.52743848  1
  N  N543  1  0.78719355  0.05054719  0.43732674  1
  N  N544  1  0.05738425  0.60441920  0.58707736  1
  N  N545  1  0.70124937  0.96900124  0.58322993  1
  N  N546  1  0.69901939  0.74528459  0.22650191  1
  N  N547  1  0.85355654  0.74193490  0.43685771  1
  N  N548  1  0.85077534  0.78646211  0.52562147  1
  N  N549  1  0.76130648  0.82064625  0.43543135  1
  N  N550  1  0.58466763  0.66131373  0.08834469  1
  N  N551  1  0.22547883  0.30464594  0.08487972  1
  N  N552  1  0.21994128  0.52716140  0.72732450  1
  N  N553  1  0.37625080  0.53590084  0.93909211  1
  N  N554  1  0.37788530  0.48109459  0.02743848  1
  N  N555  1  0.28719355  0.44945281  0.93732674  1
  N  N556  1  0.55738425  0.10441920  0.58707736  1
  N  N557  1  0.20124937  0.46900124  0.58322993  1
  N  N558  1  0.19901939  0.24528459  0.22650191  1
  N  N559  1  0.35355654  0.24193490  0.43685771  1
  N  N560  1  0.35077534  0.28646211  0.52562147  1
  N  N561  1  0.26130648  0.32064625  0.43543135  1
  N  N562  1  0.08466763  0.16131373  0.08834469  1
  N  N563  1  0.72547883  0.80464594  0.08487972  1
  N  N564  1  0.71994128  0.02716140  0.72732450  1
  N  N565  1  0.87625080  0.03590084  0.93909211  1
  N  N566  1  0.87788530  0.98109459  0.02743848  1
  N  N567  1  0.78719355  0.94945281  0.93732674  1
  N  N568  1  0.94261575  0.60441920  0.91292264  1
  N  N569  1  0.29875063  0.96900124  0.91677007  1
  N  N570  1  0.30098061  0.74528459  0.27349809  1
  N  N571  1  0.14644346  0.74193490  0.06314229  1
  N  N572  1  0.14922466  0.78646211  0.97437853  1
  N  N573  1  0.23869352  0.82064625  0.06456865  1
  N  N574  1  0.41533237  0.66131373  0.41165531  1
  N  N575  1  0.77452117  0.30464594  0.41512028  1
  N  N576  1  0.78005872  0.52716140  0.77267550  1
  N  N577  1  0.62374920  0.53590084  0.56090789  1
  N  N578  1  0.62211470  0.48109459  0.47256152  1
  N  N579  1  0.71280645  0.44945281  0.56267326  1
  N  N580  1  0.44261575  0.10441920  0.91292264  1
  N  N581  1  0.79875063  0.46900124  0.91677007  1
  N  N582  1  0.80098061  0.24528459  0.27349809  1
  N  N583  1  0.64644346  0.24193490  0.06314229  1
  N  N584  1  0.64922466  0.28646211  0.97437853  1
  N  N585  1  0.73869352  0.32064625  0.06456865  1
  N  N586  1  0.91533237  0.16131373  0.41165531  1
  N  N587  1  0.27452117  0.80464594  0.41512028  1
  N  N588  1  0.28005872  0.02716140  0.77267550  1
  N  N589  1  0.12374920  0.03590084  0.56090789  1
  N  N590  1  0.12211470  0.98109459  0.47256152  1
  N  N591  1  0.21280645  0.94945281  0.56267326  1
