# generated using pymatgen
data_AlPO4
_symmetry_space_group_name_H-M   'P 1'
_cell_length_a   14.91875147
_cell_length_b   27.77388317
_cell_length_c   8.41955232
_cell_angle_alpha   90.00000000
_cell_angle_beta   90.00000000
_cell_angle_gamma   90.00000000
_symmetry_Int_Tables_number   1
_chemical_formula_structural   AlPO4
_chemical_formula_sum   'Al32 P32 O128'
_cell_volume   3488.65548223
_cell_formula_units_Z   32
loop_
 _symmetry_equiv_pos_site_id
 _symmetry_equiv_pos_as_xyz
  1  'x, y, z'
loop_
 _atom_site_type_symbol
 _atom_site_label
 _atom_site_symmetry_multiplicity
 _atom_site_fract_x
 _atom_site_fract_y
 _atom_site_fract_z
 _atom_site_occupancy
 _atom_site_charge
  Al  Al0  1  0.09262989  0.77641960  0.26636579  1 1.776598
  Al  Al1  1  0.89671955  0.67185077  0.26338045  1 1.777769
  Al  Al2  1  0.09447366  0.94382915  0.26299488  1 1.807205
  Al  Al3  1  0.77984846  0.85946767  0.26635564  1 1.769652
  Al  Al4  1  0.59262989  0.27641960  0.76636579  1 1.776598
  Al  Al5  1  0.39671955  0.17185077  0.76338045  1 1.777769
  Al  Al6  1  0.59447366  0.44382915  0.76299488  1 1.807205
  Al  Al7  1  0.27984846  0.35946767  0.76635564  1 1.769652
  Al  Al8  1  0.90737011  0.22358040  0.26636579  1 1.776598
  Al  Al9  1  0.10328045  0.32814923  0.26338045  1 1.777769
  Al  Al10  1  0.90552634  0.05617085  0.26299488  1 1.807206
  Al  Al11  1  0.22015154  0.14053233  0.26635564  1 1.769652
  Al  Al12  1  0.40737011  0.72358040  0.76636579  1 1.776598
  Al  Al13  1  0.60328045  0.82814923  0.76338045  1 1.777769
  Al  Al14  1  0.40552634  0.55617085  0.76299488  1 1.807206
  Al  Al15  1  0.72015154  0.64053233  0.76635564  1 1.769652
  Al  Al16  1  0.59262989  0.72358040  0.26636579  1 1.776597
  Al  Al17  1  0.39671955  0.82814923  0.26338045  1 1.777768
  Al  Al18  1  0.59447366  0.55617085  0.26299488  1 1.807207
  Al  Al19  1  0.27984846  0.64053233  0.26635564  1 1.769651
  Al  Al20  1  0.09262989  0.22358040  0.76636579  1 1.776597
  Al  Al21  1  0.89671955  0.32814923  0.76338045  1 1.777768
  Al  Al22  1  0.09447366  0.05617085  0.76299488  1 1.807207
  Al  Al23  1  0.77984846  0.14053233  0.76635564  1 1.769651
  Al  Al24  1  0.40737011  0.27641960  0.26636579  1 1.776597
  Al  Al25  1  0.60328045  0.17185077  0.26338045  1 1.777767
  Al  Al26  1  0.40552634  0.44382915  0.26299488  1 1.807208
  Al  Al27  1  0.72015154  0.35946767  0.26635564  1 1.769652
  Al  Al28  1  0.90737011  0.77641960  0.76636579  1 1.776597
  Al  Al29  1  0.10328045  0.67185077  0.76338045  1 1.777767
  Al  Al30  1  0.90552634  0.94382915  0.76299488  1 1.807208
  Al  Al31  1  0.22015154  0.85946767  0.76635564  1 1.769652
  P  P32  1  0.90212488  0.77738008  0.13909490  1 1.746827
  P  P33  1  0.09763399  0.67043733  0.13687860  1 1.764871
  P  P34  1  0.21457405  0.85868426  0.13459591  1 1.75982
  P  P35  1  0.89845548  0.94466290  0.14846047  1 1.794212
  P  P36  1  0.40212488  0.27738008  0.63909490  1 1.746827
  P  P37  1  0.59763399  0.17043733  0.63687860  1 1.764871
  P  P38  1  0.71457405  0.35868426  0.63459591  1 1.75982
  P  P39  1  0.39845548  0.44466290  0.64846047  1 1.794212
  P  P40  1  0.09787512  0.22261992  0.13909490  1 1.746827
  P  P41  1  0.90236601  0.32956267  0.13687860  1 1.764871
  P  P42  1  0.78542595  0.14131574  0.13459591  1 1.75982
  P  P43  1  0.10154452  0.05533710  0.14846047  1 1.794212
  P  P44  1  0.59787512  0.72261992  0.63909490  1 1.746827
  P  P45  1  0.40236601  0.82956267  0.63687860  1 1.764871
  P  P46  1  0.28542595  0.64131574  0.63459591  1 1.75982
  P  P47  1  0.60154452  0.55533710  0.64846047  1 1.794212
  P  P48  1  0.40212488  0.72261992  0.13909490  1 1.746827
  P  P49  1  0.59763399  0.82956267  0.13687860  1 1.764871
  P  P50  1  0.71457405  0.64131574  0.13459591  1 1.75982
  P  P51  1  0.39845548  0.55533710  0.14846047  1 1.794212
  P  P52  1  0.90212488  0.22261992  0.63909490  1 1.746827
  P  P53  1  0.09763399  0.32956267  0.63687860  1 1.764871
  P  P54  1  0.21457405  0.14131574  0.63459591  1 1.75982
  P  P55  1  0.89845548  0.05533710  0.64846047  1 1.794212
  P  P56  1  0.59787512  0.27738008  0.13909490  1 1.746827
  P  P57  1  0.40236601  0.17043733  0.13687860  1 1.764871
  P  P58  1  0.28542595  0.35868426  0.13459591  1 1.75982
  P  P59  1  0.60154452  0.44466290  0.14846047  1 1.794212
  P  P60  1  0.09787512  0.77738008  0.63909490  1 1.746827
  P  P61  1  0.90236601  0.67043733  0.63687860  1 1.764871
  P  P62  1  0.78542595  0.85868426  0.63459591  1 1.75982
  P  P63  1  0.10154452  0.94466290  0.64846047  1 1.794212
  O  O64  1  0.87725678  0.73411876  0.24460242  1 -0.898417
  O  O65  1  0.99017485  0.80017022  0.19909173  1 -0.887377
  O  O66  1  0.82795343  0.81542643  0.14430044  1 -0.872172
  O  O67  1  0.91312646  0.75967481  0.96669048  1 -0.892995
  O  O68  1  0.11498155  0.72487464  0.15459408  1 -0.913071
  O  O69  1  0.16353829  0.64207674  0.24132019  1 -0.861483
  O  O70  1  0.11168666  0.65595276  0.96300329  1 -0.87437
  O  O71  1  0.00216663  0.65743272  0.18840305  1 -0.881735
  O  O72  1  0.31670783  0.86051056  0.15568153  1 -0.864115
  O  O73  1  0.17537048  0.82010994  0.24599919  1 -0.888607
  O  O74  1  0.19126378  0.84562151  0.96224627  1 -0.886463
  O  O75  1  0.17611720  0.90831202  0.17442818  1 -0.878364
  O  O76  1  0.98733401  0.92337719  0.20976496  1 -0.909298
  O  O77  1  0.89005732  0.99740232  0.19827171  1 -0.913699
  O  O78  1  0.81935310  0.91672903  0.21860238  1 -0.867227
  O  O79  1  0.89545515  0.94080148  0.96757346  1 -0.90756
  O  O80  1  0.37725678  0.23411876  0.74460242  1 -0.898417
  O  O81  1  0.49017485  0.30017022  0.69909173  1 -0.887377
  O  O82  1  0.32795343  0.31542643  0.64430044  1 -0.872172
  O  O83  1  0.41312646  0.25967481  0.46669048  1 -0.892995
  O  O84  1  0.61498155  0.22487464  0.65459408  1 -0.913071
  O  O85  1  0.66353829  0.14207674  0.74132019  1 -0.861483
  O  O86  1  0.61168666  0.15595276  0.46300329  1 -0.87437
  O  O87  1  0.50216663  0.15743272  0.68840305  1 -0.881735
  O  O88  1  0.81670783  0.36051056  0.65568153  1 -0.864115
  O  O89  1  0.67537048  0.32010994  0.74599919  1 -0.888607
  O  O90  1  0.69126378  0.34562151  0.46224627  1 -0.886463
  O  O91  1  0.67611720  0.40831202  0.67442818  1 -0.878364
  O  O92  1  0.48733401  0.42337719  0.70976496  1 -0.909298
  O  O93  1  0.39005732  0.49740232  0.69827171  1 -0.913699
  O  O94  1  0.31935310  0.41672903  0.71860238  1 -0.867227
  O  O95  1  0.39545515  0.44080148  0.46757346  1 -0.90756
  O  O96  1  0.12274322  0.26588124  0.24460242  1 -0.898417
  O  O97  1  0.00982515  0.19982978  0.19909173  1 -0.887377
  O  O98  1  0.17204657  0.18457357  0.14430044  1 -0.872172
  O  O99  1  0.08687354  0.24032519  0.96669048  1 -0.892995
  O  O100  1  0.88501845  0.27512536  0.15459408  1 -0.913071
  O  O101  1  0.83646171  0.35792326  0.24132019  1 -0.861483
  O  O102  1  0.88831334  0.34404724  0.96300329  1 -0.87437
  O  O103  1  0.99783337  0.34256728  0.18840305  1 -0.881735
  O  O104  1  0.68329217  0.13948944  0.15568153  1 -0.864116
  O  O105  1  0.82462952  0.17989006  0.24599919  1 -0.888607
  O  O106  1  0.80873622  0.15437849  0.96224627  1 -0.886463
  O  O107  1  0.82388280  0.09168798  0.17442818  1 -0.878364
  O  O108  1  0.01266599  0.07662281  0.20976496  1 -0.909298
  O  O109  1  0.10994268  0.00259768  0.19827171  1 -0.913699
  O  O110  1  0.18064690  0.08327097  0.21860238  1 -0.867227
  O  O111  1  0.10454485  0.05919852  0.96757346  1 -0.90756
  O  O112  1  0.62274322  0.76588124  0.74460242  1 -0.898417
  O  O113  1  0.50982515  0.69982978  0.69909173  1 -0.887377
  O  O114  1  0.67204657  0.68457357  0.64430044  1 -0.872172
  O  O115  1  0.58687354  0.74032519  0.46669048  1 -0.892995
  O  O116  1  0.38501845  0.77512536  0.65459408  1 -0.913071
  O  O117  1  0.33646171  0.85792326  0.74132019  1 -0.861483
  O  O118  1  0.38831334  0.84404724  0.46300329  1 -0.87437
  O  O119  1  0.49783337  0.84256728  0.68840305  1 -0.881735
  O  O120  1  0.18329217  0.63948944  0.65568153  1 -0.864116
  O  O121  1  0.32462952  0.67989006  0.74599919  1 -0.888607
  O  O122  1  0.30873622  0.65437849  0.46224627  1 -0.886463
  O  O123  1  0.32388280  0.59168798  0.67442818  1 -0.878364
  O  O124  1  0.51266599  0.57662281  0.70976496  1 -0.909298
  O  O125  1  0.60994268  0.50259768  0.69827171  1 -0.913699
  O  O126  1  0.68064690  0.58327097  0.71860238  1 -0.867227
  O  O127  1  0.60454485  0.55919852  0.46757346  1 -0.90756
  O  O128  1  0.37725678  0.76588124  0.24460242  1 -0.898417
  O  O129  1  0.49017485  0.69982978  0.19909173  1 -0.887377
  O  O130  1  0.32795343  0.68457357  0.14430044  1 -0.872172
  O  O131  1  0.41312646  0.74032519  0.96669048  1 -0.892995
  O  O132  1  0.61498155  0.77512536  0.15459408  1 -0.913071
  O  O133  1  0.66353829  0.85792326  0.24132019  1 -0.861483
  O  O134  1  0.61168666  0.84404724  0.96300329  1 -0.87437
  O  O135  1  0.50216663  0.84256728  0.18840305  1 -0.881735
  O  O136  1  0.81670783  0.63948944  0.15568153  1 -0.864116
  O  O137  1  0.67537048  0.67989006  0.24599919  1 -0.888607
  O  O138  1  0.69126378  0.65437849  0.96224627  1 -0.886463
  O  O139  1  0.67611720  0.59168798  0.17442818  1 -0.878364
  O  O140  1  0.48733401  0.57662281  0.20976496  1 -0.909298
  O  O141  1  0.39005732  0.50259768  0.19827171  1 -0.913699
  O  O142  1  0.31935310  0.58327097  0.21860238  1 -0.867227
  O  O143  1  0.39545515  0.55919852  0.96757346  1 -0.90756
  O  O144  1  0.87725678  0.26588124  0.74460242  1 -0.898417
  O  O145  1  0.99017485  0.19982978  0.69909173  1 -0.887377
  O  O146  1  0.82795343  0.18457357  0.64430044  1 -0.872172
  O  O147  1  0.91312646  0.24032519  0.46669048  1 -0.892995
  O  O148  1  0.11498155  0.27512536  0.65459408  1 -0.913071
  O  O149  1  0.16353829  0.35792326  0.74132019  1 -0.861483
  O  O150  1  0.11168666  0.34404724  0.46300329  1 -0.87437
  O  O151  1  0.00216663  0.34256728  0.68840305  1 -0.881735
  O  O152  1  0.31670783  0.13948944  0.65568153  1 -0.864116
  O  O153  1  0.17537048  0.17989006  0.74599919  1 -0.888607
  O  O154  1  0.19126378  0.15437849  0.46224627  1 -0.886463
  O  O155  1  0.17611720  0.09168798  0.67442818  1 -0.878364
  O  O156  1  0.98733401  0.07662281  0.70976496  1 -0.909298
  O  O157  1  0.89005732  0.00259768  0.69827171  1 -0.913699
  O  O158  1  0.81935310  0.08327097  0.71860238  1 -0.867227
  O  O159  1  0.89545515  0.05919852  0.46757346  1 -0.90756
  O  O160  1  0.62274322  0.23411876  0.24460242  1 -0.898417
  O  O161  1  0.50982515  0.30017022  0.19909173  1 -0.887377
  O  O162  1  0.67204657  0.31542643  0.14430044  1 -0.872172
  O  O163  1  0.58687354  0.25967481  0.96669048  1 -0.892995
  O  O164  1  0.38501845  0.22487464  0.15459408  1 -0.913071
  O  O165  1  0.33646171  0.14207674  0.24132019  1 -0.861483
  O  O166  1  0.38831334  0.15595276  0.96300329  1 -0.87437
  O  O167  1  0.49783337  0.15743272  0.18840305  1 -0.881735
  O  O168  1  0.18329217  0.36051056  0.15568153  1 -0.864116
  O  O169  1  0.32462952  0.32010994  0.24599919  1 -0.888607
  O  O170  1  0.30873622  0.34562151  0.96224627  1 -0.886463
  O  O171  1  0.32388280  0.40831202  0.17442818  1 -0.878364
  O  O172  1  0.51266599  0.42337719  0.20976496  1 -0.909298
  O  O173  1  0.60994268  0.49740232  0.19827171  1 -0.913699
  O  O174  1  0.68064690  0.41672903  0.21860238  1 -0.867227
  O  O175  1  0.60454485  0.44080148  0.96757346  1 -0.90756
  O  O176  1  0.12274322  0.73411876  0.74460242  1 -0.898417
  O  O177  1  0.00982515  0.80017022  0.69909173  1 -0.887377
  O  O178  1  0.17204657  0.81542643  0.64430044  1 -0.872172
  O  O179  1  0.08687354  0.75967481  0.46669048  1 -0.892995
  O  O180  1  0.88501845  0.72487464  0.65459408  1 -0.913071
  O  O181  1  0.83646171  0.64207674  0.74132019  1 -0.861483
  O  O182  1  0.88831334  0.65595276  0.46300329  1 -0.87437
  O  O183  1  0.99783337  0.65743272  0.68840305  1 -0.881735
  O  O184  1  0.68329217  0.86051056  0.65568153  1 -0.864116
  O  O185  1  0.82462952  0.82010994  0.74599919  1 -0.888607
  O  O186  1  0.80873622  0.84562151  0.46224627  1 -0.886463
  O  O187  1  0.82388280  0.90831202  0.67442818  1 -0.878364
  O  O188  1  0.01266599  0.92337719  0.70976496  1 -0.909298
  O  O189  1  0.10994268  0.99740232  0.69827171  1 -0.913699
  O  O190  1  0.18064690  0.91672903  0.71860238  1 -0.867227
  O  O191  1  0.10454485  0.94080148  0.46757346  1 -0.90756
