# generated using pymatgen
data_CdH8C6N6Cl
_symmetry_space_group_name_H-M   'P 1'
_cell_length_a   7.58797679
_cell_length_b   21.11076890
_cell_length_c   9.89516868
_cell_angle_alpha   90.00000000
_cell_angle_beta   90.00000000
_cell_angle_gamma   90.00000000
_symmetry_Int_Tables_number   1
_chemical_formula_structural   CdH8C6N6Cl
_chemical_formula_sum   'Cd4 H32 C24 N24 Cl4'
_cell_volume   1585.08752297
_cell_formula_units_Z   4
loop_
 _symmetry_equiv_pos_site_id
 _symmetry_equiv_pos_as_xyz
  1  'x, y, z'
loop_
 _atom_site_type_symbol
 _atom_site_label
 _atom_site_symmetry_multiplicity
 _atom_site_fract_x
 _atom_site_fract_y
 _atom_site_fract_z
 _atom_site_occupancy
 _atom_site_charge
  Cd  Cd0  1  0.75000000  0.25000000  0.25000000  1 0.719502
  Cd  Cd1  1  0.25000000  0.25000000  0.25000000  1 0.719501
  Cd  Cd2  1  0.25000000  0.75000000  0.75000000  1 0.719502
  Cd  Cd3  1  0.75000000  0.75000000  0.75000000  1 0.719501
  H  H4  1  0.78090744  0.10875219  0.04622293  1 0.090819
  H  H5  1  0.38270693  0.02566851  0.88466797  1 0.040871
  H  H6  1  0.28090744  0.60875219  0.54622293  1 0.090819
  H  H7  1  0.88270693  0.52566851  0.38466797  1 0.040871
  H  H8  1  0.21909256  0.39124781  0.04622293  1 0.090819
  H  H9  1  0.61729307  0.47433149  0.88466797  1 0.040871
  H  H10  1  0.71909256  0.89124781  0.54622293  1 0.090819
  H  H11  1  0.11729307  0.97433149  0.38466797  1 0.040871
  H  H12  1  0.21909256  0.60875219  0.95377707  1 0.090818
  H  H13  1  0.61729307  0.52566851  0.11533203  1 0.040868
  H  H14  1  0.71909256  0.10875219  0.45377707  1 0.090818
  H  H15  1  0.11729307  0.02566851  0.61533203  1 0.040868
  H  H16  1  0.78090744  0.89124781  0.95377707  1 0.090818
  H  H17  1  0.38270693  0.97433149  0.11533203  1 0.040868
  H  H18  1  0.28090744  0.39124781  0.45377707  1 0.090818
  H  H19  1  0.88270693  0.47433149  0.61533203  1 0.040868
  H  H20  1  0.21909256  0.89124781  0.95377707  1 0.090808
  H  H21  1  0.61729307  0.97433149  0.11533203  1 0.040862
  H  H22  1  0.71909256  0.39124781  0.45377707  1 0.090808
  H  H23  1  0.11729307  0.47433149  0.61533203  1 0.040862
  H  H24  1  0.78090744  0.60875219  0.95377707  1 0.090808
  H  H25  1  0.38270693  0.52566851  0.11533203  1 0.040862
  H  H26  1  0.28090744  0.10875219  0.45377707  1 0.090808
  H  H27  1  0.88270693  0.02566851  0.61533203  1 0.040862
  H  H28  1  0.78090744  0.39124781  0.04622293  1 0.090808
  H  H29  1  0.38270693  0.47433149  0.88466797  1 0.04086
  H  H30  1  0.28090744  0.89124781  0.54622293  1 0.090808
  H  H31  1  0.88270693  0.97433149  0.38466797  1 0.04086
  H  H32  1  0.21909256  0.10875219  0.04622293  1 0.090808
  H  H33  1  0.61729307  0.02566851  0.88466797  1 0.04086
  H  H34  1  0.71909256  0.60875219  0.54622293  1 0.090808
  H  H35  1  0.11729307  0.52566851  0.38466797  1 0.04086
  C  C36  1  0.64486978  0.11955327  0.07063803  1 0.01664
  C  C37  1  0.14486978  0.61955327  0.57063803  1 0.01664
  C  C38  1  0.35513022  0.38044673  0.07063803  1 0.01664
  C  C39  1  0.85513022  0.88044673  0.57063803  1 0.01664
  C  C40  1  0.35513022  0.61955327  0.92936197  1 0.016641
  C  C41  1  0.85513022  0.11955327  0.42936197  1 0.016641
  C  C42  1  0.64486978  0.88044673  0.92936197  1 0.016641
  C  C43  1  0.14486978  0.38044673  0.42936197  1 0.016641
  C  C44  1  0.35513022  0.88044673  0.92936197  1 0.016636
  C  C45  1  0.85513022  0.38044673  0.42936197  1 0.016636
  C  C46  1  0.64486978  0.61955327  0.92936197  1 0.016636
  C  C47  1  0.14486978  0.11955327  0.42936197  1 0.016636
  C  C48  1  0.64486978  0.38044673  0.07063803  1 0.016637
  C  C49  1  0.14486978  0.88044673  0.57063803  1 0.016637
  C  C50  1  0.35513022  0.11955327  0.07063803  1 0.016637
  C  C51  1  0.85513022  0.61955327  0.57063803  1 0.016637
  C  C52  1  0.50000000  0.02813617  0.95072094  1 -0.058975
  C  C53  1  0.00000000  0.52813617  0.45072094  1 -0.058975
  C  C54  1  0.50000000  0.47186383  0.95072094  1 -0.058975
  C  C55  1  0.00000000  0.97186383  0.45072094  1 -0.058975
  C  C56  1  0.50000000  0.52813617  0.04927906  1 -0.058973
  C  C57  1  0.00000000  0.02813617  0.54927906  1 -0.058973
  C  C58  1  0.50000000  0.97186383  0.04927906  1 -0.058973
  C  C59  1  0.00000000  0.47186383  0.54927906  1 -0.058973
  N  N60  1  0.58942151  0.17035723  0.13756653  1 -0.169449
  N  N61  1  0.08942151  0.67035723  0.63756653  1 -0.169449
  N  N62  1  0.41057849  0.32964277  0.13756653  1 -0.169449
  N  N63  1  0.91057849  0.82964277  0.63756653  1 -0.169449
  N  N64  1  0.41057849  0.67035723  0.86243347  1 -0.169449
  N  N65  1  0.91057849  0.17035723  0.36243347  1 -0.169449
  N  N66  1  0.58942151  0.82964277  0.86243347  1 -0.169449
  N  N67  1  0.08942151  0.32964277  0.36243347  1 -0.169449
  N  N68  1  0.41057849  0.82964277  0.86243347  1 -0.169408
  N  N69  1  0.91057849  0.32964277  0.36243347  1 -0.169408
  N  N70  1  0.58942151  0.67035723  0.86243347  1 -0.169408
  N  N71  1  0.08942151  0.17035723  0.36243347  1 -0.169408
  N  N72  1  0.58942151  0.32964277  0.13756653  1 -0.169409
  N  N73  1  0.08942151  0.82964277  0.63756653  1 -0.169409
  N  N74  1  0.41057849  0.17035723  0.13756653  1 -0.169408
  N  N75  1  0.91057849  0.67035723  0.63756653  1 -0.169408
  N  N76  1  0.50000000  0.08733130  0.02125061  1 0.00845
  N  N77  1  0.00000000  0.58733130  0.52125061  1 0.00845
  N  N78  1  0.50000000  0.41266870  0.02125061  1 0.00845
  N  N79  1  0.00000000  0.91266870  0.52125061  1 0.00845
  N  N80  1  0.50000000  0.58733130  0.97874939  1 0.00845
  N  N81  1  0.00000000  0.08733130  0.47874939  1 0.00845
  N  N82  1  0.50000000  0.91266870  0.97874939  1 0.00845
  N  N83  1  0.00000000  0.41266870  0.47874939  1 0.00845
  Cl  Cl84  1  0.00000000  0.25000000  0.06168810  1 -0.534005
  Cl  Cl85  1  0.50000000  0.75000000  0.56168810  1 -0.534005
  Cl  Cl86  1  0.00000000  0.75000000  0.93831190  1 -0.534007
  Cl  Cl87  1  0.50000000  0.25000000  0.43831190  1 -0.534007
