# generated using pymatgen
data_ZnH40C24(NO2)4
_symmetry_space_group_name_H-M   'P 1'
_cell_length_a   24.86949715
_cell_length_b   18.82868035
_cell_length_c   16.23576654
_cell_angle_alpha   89.99996952
_cell_angle_beta   130.77607944
_cell_angle_gamma   90.00002042
_symmetry_Int_Tables_number   1
_chemical_formula_structural   ZnH40C24(NO2)4
_chemical_formula_sum   'Zn8 H320 C192 N32 O64'
_cell_volume   5757.17151717
_cell_formula_units_Z   8
loop_
 _symmetry_equiv_pos_site_id
 _symmetry_equiv_pos_as_xyz
  1  'x, y, z'
loop_
 _atom_site_type_symbol
 _atom_site_label
 _atom_site_symmetry_multiplicity
 _atom_site_fract_x
 _atom_site_fract_y
 _atom_site_fract_z
 _atom_site_occupancy
  Zn  Zn0  1  0.25001449  0.00026196  0.37517832  1
  Zn  Zn1  1  0.75001456  0.50026195  0.37517774  1
  Zn  Zn2  1  0.74998500  0.00026249  0.12482180  1
  Zn  Zn3  1  0.24998571  0.50026188  0.12482287  1
  Zn  Zn4  1  0.74998514  0.99973746  0.62482157  1
  Zn  Zn5  1  0.24998549  0.49973735  0.62482276  1
  Zn  Zn6  1  0.25001471  0.99973775  0.87517798  1
  Zn  Zn7  1  0.75001560  0.49973816  0.87517884  1
  H  H8  1  0.45453338  0.06148763  0.44335685  1
  H  H9  1  0.43309276  0.97694857  0.38047388  1
  H  H10  1  0.34973627  0.04153514  0.19411182  1
  H  H11  1  0.38521122  0.12375266  0.26745619  1
  H  H12  1  0.42037198  0.96718781  0.17893377  1
  H  H13  1  0.48679860  0.95941284  0.32364563  1
  H  H14  1  0.42217538  0.16096536  0.17734183  1
  H  H15  1  0.37455008  0.08366020  0.09283272  1
  H  H16  1  0.54423181  0.06503870  0.43096423  1
  H  H17  1  0.50640276  0.15146309  0.36891162  1
  H  H18  1  0.06675008  0.02309210  0.01401508  1
  H  H19  1  0.04547192  0.93862325  0.03458744  1
  H  H20  1  0.14995819  0.95861737  0.99444149  1
  H  H21  1  0.11512841  0.87622733  0.99774862  1
  H  H22  1  0.07982958  0.03175117  0.83770457  1
  H  H23  1  0.01394453  0.04060896  0.85034225  1
  H  H24  1  0.07763045  0.83844057  0.83308246  1
  H  H25  1  0.12555496  0.91566785  0.84462933  1
  H  H26  1  0.95509972  0.93513291  0.84125067  1
  H  H27  1  0.99289123  0.84851071  0.85602624  1
  H  H28  1  0.31070414  0.20503100  0.57247724  1
  H  H29  1  0.22647336  0.18284149  0.52995557  1
  H  H30  1  0.37368915  0.13532225  0.74143764  1
  H  H31  1  0.29163262  0.09962989  0.69735636  1
  H  H32  1  0.20976698  0.23773920  0.62325784  1
  H  H33  1  0.21685662  0.17054912  0.70786308  1
  H  H34  1  0.21008997  0.26246299  0.79783969  1
  H  H35  1  0.21741221  0.32950761  0.72762659  1
  H  H36  1  0.40158387  0.25634383  0.78964457  1
  H  H37  1  0.31528256  0.29430327  0.67903238  1
  H  H38  1  0.33318857  0.37522810  0.80221149  1
  H  H39  1  0.41102367  0.32819413  0.91645692  1
  H  H40  1  0.33310125  0.12422448  0.86481164  1
  H  H41  1  0.41072762  0.17128850  0.90566097  1
  H  H42  1  0.40190759  0.24281816  0.01467620  1
  H  H43  1  0.31546757  0.20523932  0.95252516  1
  H  H44  1  0.37420355  0.36449404  0.00720642  1
  H  H45  1  0.29206335  0.39990801  0.88697035  1
  H  H46  1  0.22707331  0.31701975  0.92444335  1
  H  H47  1  0.31127203  0.29502381  0.05061378  1
  H  H48  1  0.95453417  0.56148838  0.44335737  1
  H  H49  1  0.93309177  0.47694850  0.38047228  1
  H  H50  1  0.84973660  0.54153612  0.19411182  1
  H  H51  1  0.88521150  0.62375380  0.26745558  1
  H  H52  1  0.92037262  0.46718798  0.17893508  1
  H  H53  1  0.98679906  0.45941305  0.32364633  1
  H  H54  1  0.92217542  0.66096447  0.17734115  1
  H  H55  1  0.87455130  0.58366025  0.09283431  1
  H  H56  1  0.04423214  0.56503977  0.43096426  1
  H  H57  1  0.00640284  0.65146365  0.36891096  1
  H  H58  1  0.56674987  0.52309287  0.01401484  1
  H  H59  1  0.54547143  0.43862346  0.03458673  1
  H  H60  1  0.64995804  0.45861745  0.99444117  1
  H  H61  1  0.61512852  0.37622757  0.99774857  1
  H  H62  1  0.57982911  0.53175179  0.83770533  1
  H  H63  1  0.51394376  0.54060875  0.85034186  1
  H  H64  1  0.57763071  0.33844118  0.83308256  1
  H  H65  1  0.62555481  0.41566846  0.84462886  1
  H  H66  1  0.45509968  0.43513277  0.84125132  1
  H  H67  1  0.49289132  0.34851078  0.85602549  1
  H  H68  1  0.81070477  0.70503121  0.57247754  1
  H  H69  1  0.72647315  0.68284019  0.52995555  1
  H  H70  1  0.87368998  0.63532154  0.74143902  1
  H  H71  1  0.79163269  0.59962991  0.69735667  1
  H  H72  1  0.70976767  0.73773913  0.62325825  1
  H  H73  1  0.71685696  0.67054944  0.70786319  1
  H  H74  1  0.71009063  0.76246362  0.79783964  1
  H  H75  1  0.71741284  0.82950774  0.72762701  1
  H  H76  1  0.90158473  0.75634354  0.78964505  1
  H  H77  1  0.81528335  0.79430308  0.67903326  1
  H  H78  1  0.83318964  0.87522816  0.80221256  1
  H  H79  1  0.91102433  0.82819369  0.91645757  1
  H  H80  1  0.83310173  0.62422508  0.86481191  1
  H  H81  1  0.91072751  0.67128804  0.90566135  1
  H  H82  1  0.90190713  0.74281761  0.01467599  1
  H  H83  1  0.81546776  0.70523943  0.95252492  1
  H  H84  1  0.87420389  0.86449371  0.00720682  1
  H  H85  1  0.79206428  0.89990839  0.88697109  1
  H  H86  1  0.72707350  0.81701920  0.92444284  1
  H  H87  1  0.81127229  0.79502385  0.05061386  1
  H  H88  1  0.54546625  0.06148773  0.05664293  1
  H  H89  1  0.56690677  0.97694861  0.11952621  1
  H  H90  1  0.65026326  0.04153580  0.30588758  1
  H  H91  1  0.61478844  0.12375289  0.23254356  1
  H  H92  1  0.57962735  0.96718767  0.32106470  1
  H  H93  1  0.51320056  0.95941312  0.17635286  1
  H  H94  1  0.57782446  0.16096515  0.32265868  1
  H  H95  1  0.62544925  0.08365987  0.40716666  1
  H  H96  1  0.45576775  0.06503956  0.06903527  1
  H  H97  1  0.49359710  0.15146382  0.13108889  1
  H  H98  1  0.93324966  0.02309287  0.48598397  1
  H  H99  1  0.95452818  0.93862340  0.46541178  1
  H  H100  1  0.85004165  0.95861720  0.50555854  1
  H  H101  1  0.88487254  0.87622742  0.50225220  1
  H  H102  1  0.92017014  0.03175116  0.66229556  1
  H  H103  1  0.98605559  0.04060921  0.64965812  1
  H  H104  1  0.92237021  0.83844027  0.66691841  1
  H  H105  1  0.87444529  0.91566743  0.65537142  1
  H  H106  1  0.04490111  0.93513351  0.65874929  1
  H  H107  1  0.00710931  0.84851055  0.64397469  1
  H  H108  1  0.68929574  0.20503108  0.92752299  1
  H  H109  1  0.77352673  0.18284162  0.97004477  1
  H  H110  1  0.62631083  0.13532212  0.75856256  1
  H  H111  1  0.70836731  0.09962977  0.80264374  1
  H  H112  1  0.79023263  0.23773965  0.87674243  1
  H  H113  1  0.78314358  0.17054981  0.79213838  1
  H  H114  1  0.78991002  0.26246342  0.70216102  1
  H  H115  1  0.78258733  0.32950790  0.77237325  1
  H  H116  1  0.59841562  0.25634408  0.71035553  1
  H  H117  1  0.68471703  0.29430357  0.82096735  1
  H  H118  1  0.66681102  0.37522828  0.69778792  1
  H  H119  1  0.58897605  0.32819403  0.58354283  1
  H  H120  1  0.66689894  0.12422455  0.63518935  1
  H  H121  1  0.58927248  0.17128833  0.59433939  1
  H  H122  1  0.59809283  0.24281779  0.48532437  1
  H  H123  1  0.68453287  0.20523918  0.54747572  1
  H  H124  1  0.62579633  0.36449364  0.49279357  1
  H  H125  1  0.70793581  0.39990805  0.61302862  1
  H  H126  1  0.77292637  0.31701939  0.57555662  1
  H  H127  1  0.68872780  0.29502377  0.44938620  1
  H  H128  1  0.04546647  0.56148794  0.05664272  1
  H  H129  1  0.06690665  0.47694853  0.11952599  1
  H  H130  1  0.15026403  0.54153553  0.30588825  1
  H  H131  1  0.11478895  0.62375274  0.23254363  1
  H  H132  1  0.07962807  0.46718753  0.32106569  1
  H  H133  1  0.01320130  0.45941306  0.17635422  1
  H  H134  1  0.07782458  0.66096515  0.32265779  1
  H  H135  1  0.12545007  0.58366044  0.40716694  1
  H  H136  1  0.95576793  0.56503932  0.06903563  1
  H  H137  1  0.99359676  0.65146277  0.13108817  1
  H  H138  1  0.43325064  0.52309245  0.48598546  1
  H  H139  1  0.45452882  0.43862299  0.46541354  1
  H  H140  1  0.35004217  0.45861709  0.50555877  1
  H  H141  1  0.38487207  0.37622693  0.50225206  1
  H  H142  1  0.42017062  0.53175147  0.66229476  1
  H  H143  1  0.48605579  0.54060885  0.64965802  1
  H  H144  1  0.42236956  0.33844100  0.66691808  1
  H  H145  1  0.37444549  0.41566805  0.65537169  1
  H  H146  1  0.54490044  0.43513287  0.65874894  1
  H  H147  1  0.50710921  0.34851088  0.64397530  1
  H  H148  1  0.18929565  0.70502953  0.92752240  1
  H  H149  1  0.27352693  0.68284053  0.97004411  1
  H  H150  1  0.12631127  0.63532107  0.75856201  1
  H  H151  1  0.20836744  0.59962834  0.80264250  1
  H  H152  1  0.29023301  0.73773816  0.87674257  1
  H  H153  1  0.28314317  0.67054870  0.79213563  1
  H  H154  1  0.28991018  0.76246415  0.70216162  1
  H  H155  1  0.28258686  0.82950791  0.77237470  1
  H  H156  1  0.09841530  0.75634249  0.71035584  1
  H  H157  1  0.18471789  0.79430241  0.82096907  1
  H  H158  1  0.16681040  0.87522742  0.69778826  1
  H  H159  1  0.08897523  0.82819299  0.58354261  1
  H  H160  1  0.16689888  0.62422360  0.63518784  1
  H  H161  1  0.08927158  0.67128831  0.59433793  1
  H  H162  1  0.09809295  0.74281782  0.48532338  1
  H  H163  1  0.18453323  0.70523983  0.54747640  1
  H  H164  1  0.12579636  0.86449380  0.49279429  1
  H  H165  1  0.20793611  0.89990791  0.61303002  1
  H  H166  1  0.27292596  0.81702005  0.57555705  1
  H  H167  1  0.18872821  0.79502409  0.44938821  1
  H  H168  1  0.54546642  0.93851229  0.55664396  1
  H  H169  1  0.56690729  0.02305116  0.61952657  1
  H  H170  1  0.65026386  0.95846486  0.80588879  1
  H  H171  1  0.61478870  0.87624767  0.73254435  1
  H  H172  1  0.57962746  0.03281246  0.82106514  1
  H  H173  1  0.51320106  0.04058663  0.67635436  1
  H  H174  1  0.57782470  0.83903442  0.82265873  1
  H  H175  1  0.62544977  0.91633988  0.90716776  1
  H  H176  1  0.45576841  0.93496051  0.56903634  1
  H  H177  1  0.49359765  0.84853626  0.63108940  1
  H  H178  1  0.93325026  0.97690776  0.98598544  1
  H  H179  1  0.95452745  0.06137674  0.96541159  1
  H  H180  1  0.85004164  0.04138296  0.00555835  1
  H  H181  1  0.88487189  0.12377235  0.00225150  1
  H  H182  1  0.92017099  0.96824893  0.16229535  1
  H  H183  1  0.98605546  0.95939166  0.14965879  1
  H  H184  1  0.92236917  0.16155919  0.16691734  1
  H  H185  1  0.87444522  0.08433213  0.15537094  1
  H  H186  1  0.04490024  0.06486758  0.15874936  1
  H  H187  1  0.00710848  0.15148947  0.14397386  1
  H  H188  1  0.68929613  0.79497005  0.42752340  1
  H  H189  1  0.77352652  0.81715859  0.47004352  1
  H  H190  1  0.62631111  0.86467814  0.25856293  1
  H  H191  1  0.70836717  0.90036998  0.30264276  1
  H  H192  1  0.79023132  0.76225908  0.37674128  1
  H  H193  1  0.78314381  0.82945048  0.29213886  1
  H  H194  1  0.78990921  0.73753747  0.20215968  1
  H  H195  1  0.78258712  0.67049189  0.27237212  1
  H  H196  1  0.59841403  0.74365644  0.21035291  1
  H  H197  1  0.68471599  0.70569663  0.32096693  1
  H  H198  1  0.66681121  0.62477163  0.19778851  1
  H  H199  1  0.58897518  0.67180511  0.08354149  1
  H  H200  1  0.66689940  0.87577533  0.13518903  1
  H  H201  1  0.58927223  0.82871256  0.09433888  1
  H  H202  1  0.59809181  0.75718177  0.98532354  1
  H  H203  1  0.68453194  0.79476046  0.04747448  1
  H  H204  1  0.62579615  0.63550631  0.99279278  1
  H  H205  1  0.70793578  0.60009183  0.11302838  1
  H  H206  1  0.77292574  0.68298085  0.07555575  1
  H  H207  1  0.68872767  0.70497540  0.94938551  1
  H  H208  1  0.04546578  0.43851263  0.55664224  1
  H  H209  1  0.06690739  0.52305128  0.61952622  1
  H  H210  1  0.15026292  0.45846458  0.80588731  1
  H  H211  1  0.11478801  0.37624745  0.73254281  1
  H  H212  1  0.07962771  0.53281275  0.82106486  1
  H  H213  1  0.01319975  0.54058663  0.67635215  1
  H  H214  1  0.07782518  0.33903544  0.82265883  1
  H  H215  1  0.12544907  0.41634085  0.90716611  1
  H  H216  1  0.95576734  0.43496048  0.56903454  1
  H  H217  1  0.99359726  0.34853548  0.63108917  1
  H  H218  1  0.43325052  0.47690749  0.98598584  1
  H  H219  1  0.45452758  0.56137638  0.96541216  1
  H  H220  1  0.35004162  0.54138252  0.00555867  1
  H  H221  1  0.38487159  0.62377183  0.00225162  1
  H  H222  1  0.42017111  0.46824835  0.16229454  1
  H  H223  1  0.48605611  0.45939159  0.14965856  1
  H  H224  1  0.42236890  0.66155937  0.16691670  1
  H  H225  1  0.37444537  0.58433172  0.15537153  1
  H  H226  1  0.54489984  0.56486759  0.15874790  1
  H  H227  1  0.50710799  0.65148997  0.14397368  1
  H  H228  1  0.18929618  0.29496974  0.42752320  1
  H  H229  1  0.27352677  0.31715858  0.47004400  1
  H  H230  1  0.12631131  0.36467807  0.25856262  1
  H  H231  1  0.20836751  0.40037044  0.30264313  1
  H  H232  1  0.29023253  0.26226086  0.37674164  1
  H  H233  1  0.28314334  0.32945035  0.29213725  1
  H  H234  1  0.28990992  0.23753656  0.20216101  1
  H  H235  1  0.28258725  0.17049239  0.27237306  1
  H  H236  1  0.09841541  0.24365642  0.21035504  1
  H  H237  1  0.18471708  0.20569661  0.32096716  1
  H  H238  1  0.16681097  0.12477198  0.19778795  1
  H  H239  1  0.08897574  0.17180616  0.08354223  1
  H  H240  1  0.16689868  0.37577553  0.13518852  1
  H  H241  1  0.08927212  0.32871170  0.09433890  1
  H  H242  1  0.09809235  0.25718202  0.98532336  1
  H  H243  1  0.18453250  0.29476086  0.04747524  1
  H  H244  1  0.12579692  0.13550637  0.99279391  1
  H  H245  1  0.20793639  0.10009163  0.11302961  1
  H  H246  1  0.27292682  0.18298005  0.07555687  1
  H  H247  1  0.18872823  0.20497611  0.94938658  1
  H  H248  1  0.45453335  0.93851238  0.94335664  1
  H  H249  1  0.43309275  0.02305139  0.88047379  1
  H  H250  1  0.34973627  0.95846502  0.69411159  1
  H  H251  1  0.38521107  0.87624805  0.76745587  1
  H  H252  1  0.42037287  0.03281243  0.67893608  1
  H  H253  1  0.48679930  0.04058676  0.82364675  1
  H  H254  1  0.42217527  0.83903467  0.67734194  1
  H  H255  1  0.37455063  0.91634003  0.59283348  1
  H  H256  1  0.54423198  0.93496071  0.93096489  1
  H  H257  1  0.50640240  0.84853602  0.86891154  1
  H  H258  1  0.06674966  0.97690799  0.51401486  1
  H  H259  1  0.04547183  0.06137724  0.53458785  1
  H  H260  1  0.14995821  0.04138400  0.49444175  1
  H  H261  1  0.11512714  0.12377321  0.49774761  1
  H  H262  1  0.07982919  0.96824935  0.33770474  1
  H  H263  1  0.01394479  0.95939151  0.35034190  1
  H  H264  1  0.07762987  0.16155975  0.33308175  1
  H  H265  1  0.12555421  0.08433287  0.34462841  1
  H  H266  1  0.95509911  0.06486704  0.34125082  1
  H  H267  1  0.99289049  0.15148964  0.35602502  1
  H  H268  1  0.31070411  0.79496969  0.07247690  1
  H  H269  1  0.22647335  0.81715887  0.02995591  1
  H  H270  1  0.37368864  0.86467814  0.24143737  1
  H  H271  1  0.29163254  0.90037063  0.19735659  1
  H  H272  1  0.20976769  0.76226085  0.12325858  1
  H  H273  1  0.21685658  0.82944978  0.20786198  1
  H  H274  1  0.21009016  0.73753596  0.29783803  1
  H  H275  1  0.21741294  0.67049230  0.22762687  1
  H  H276  1  0.40158453  0.74365648  0.28964446  1
  H  H277  1  0.31528262  0.70569665  0.17903234  1
  H  H278  1  0.33318935  0.62477199  0.30221247  1
  H  H279  1  0.41102422  0.67180643  0.41645763  1
  H  H280  1  0.33310102  0.87577563  0.36481093  1
  H  H281  1  0.41072759  0.82871170  0.40566072  1
  H  H282  1  0.40190725  0.75718220  0.51467630  1
  H  H283  1  0.31546717  0.79476073  0.45252421  1
  H  H284  1  0.37420302  0.63550652  0.50720626  1
  H  H285  1  0.29206378  0.60009164  0.38697113  1
  H  H286  1  0.22707340  0.68298010  0.42444355  1
  H  H287  1  0.31127154  0.70497500  0.55061375  1
  H  H288  1  0.95453349  0.43851228  0.94335702  1
  H  H289  1  0.93309338  0.52305099  0.88047416  1
  H  H290  1  0.84973634  0.45846446  0.69411223  1
  H  H291  1  0.88521137  0.37624718  0.76745677  1
  H  H292  1  0.92037155  0.53281235  0.67893428  1
  H  H293  1  0.98679934  0.54058676  0.82364712  1
  H  H294  1  0.92217514  0.33903417  0.67734185  1
  H  H295  1  0.87454986  0.41633967  0.59283267  1
  H  H296  1  0.04423205  0.43496059  0.93096435  1
  H  H297  1  0.00640292  0.34853645  0.86891096  1
  H  H298  1  0.56675034  0.47690797  0.51401549  1
  H  H299  1  0.54547274  0.56137667  0.53458825  1
  H  H300  1  0.64995838  0.54138277  0.49444083  1
  H  H301  1  0.61512814  0.62377232  0.49774763  1
  H  H302  1  0.57982880  0.46824833  0.33770543  1
  H  H303  1  0.51394389  0.45939189  0.35034135  1
  H  H304  1  0.57763060  0.66155955  0.33308216  1
  H  H305  1  0.62555429  0.58433190  0.34462766  1
  H  H306  1  0.45509988  0.56486784  0.34125136  1
  H  H307  1  0.49289145  0.65149027  0.35602524  1
  H  H308  1  0.81070467  0.29497041  0.07247780  1
  H  H309  1  0.72647346  0.31715899  0.02995623  1
  H  H310  1  0.87368888  0.36467851  0.24143836  1
  H  H311  1  0.79163278  0.40037090  0.19735776  1
  H  H312  1  0.70976794  0.26226101  0.12325843  1
  H  H313  1  0.71685677  0.32945029  0.20786269  1
  H  H314  1  0.71009043  0.23753618  0.29783904  1
  H  H315  1  0.71741313  0.17049208  0.22762657  1
  H  H316  1  0.90158513  0.24365695  0.28964496  1
  H  H317  1  0.81528316  0.20569732  0.17903240  1
  H  H318  1  0.83318956  0.12477221  0.30221187  1
  H  H319  1  0.91102473  0.17180615  0.41645753  1
  H  H320  1  0.83310138  0.37577583  0.36481188  1
  H  H321  1  0.91072846  0.32871171  0.40566171  1
  H  H322  1  0.90190795  0.25718169  0.51467683  1
  H  H323  1  0.81546759  0.29476032  0.45252475  1
  H  H324  1  0.87420353  0.13550623  0.50720561  1
  H  H325  1  0.79206411  0.10009170  0.38697040  1
  H  H326  1  0.72707427  0.18298054  0.42444332  1
  H  H327  1  0.81127236  0.20497537  0.55061324  1
  C  C328  1  0.34718731  0.03033888  0.35550029  1
  C  C329  1  0.41355683  0.03175071  0.36799796  1
  C  C330  1  0.39596359  0.06690350  0.26884805  1
  C  C331  1  0.47022994  0.98939137  0.25233426  1
  C  C332  1  0.42682536  0.10524307  0.16070435  1
  C  C333  1  0.52191616  0.09867251  0.35996016  1
  C  C334  1  0.15273716  0.97013894  0.16123533  1
  C  C335  1  0.08634801  0.96834524  0.04095200  1
  C  C336  1  0.10398349  0.93298668  0.97716544  1
  C  C337  1  0.02993739  0.01008307  0.81180625  1
  C  C338  1  0.07314248  0.89422309  0.80747695  1
  C  C339  1  0.97775928  0.90117612  0.81576555  1
  C  C340  1  0.27999356  0.09762966  0.52163102  1
  C  C341  1  0.28133989  0.16371105  0.57728854  1
  C  C342  1  0.31684363  0.14592812  0.69406685  1
  C  C343  1  0.23948818  0.22043448  0.70759508  1
  C  C344  1  0.23977238  0.27948337  0.77281251  1
  C  C345  1  0.34878544  0.27183805  0.76124322  1
  C  C346  1  0.35525502  0.32309919  0.83971299  1
  C  C347  1  0.35510691  0.17637721  0.87140964  1
  C  C348  1  0.34904880  0.22758404  0.93743372  1
  C  C349  1  0.31737866  0.35373593  0.94095635  1
  C  C350  1  0.28191861  0.33620395  0.98681147  1
  C  C351  1  0.28032394  0.40254445  0.03910569  1
  C  C352  1  0.84718524  0.53034035  0.35549768  1
  C  C353  1  0.91355711  0.53175083  0.36799820  1
  C  C354  1  0.89596337  0.56690389  0.26884678  1
  C  C355  1  0.97023071  0.48939163  0.25233521  1
  C  C356  1  0.92682586  0.60524349  0.16070244  1
  C  C357  1  0.02191655  0.59867256  0.35996081  1
  C  C358  1  0.65273637  0.47013814  0.16123469  1
  C  C359  1  0.58634775  0.46834461  0.04095159  1
  C  C360  1  0.60398278  0.43298733  0.97716514  1
  C  C361  1  0.52993638  0.51008202  0.81180458  1
  C  C362  1  0.57314273  0.39422307  0.80747720  1
  C  C363  1  0.47775949  0.40117510  0.81576593  1
  C  C364  1  0.77999456  0.59762883  0.52163219  1
  C  C365  1  0.78133990  0.66371066  0.57728890  1
  C  C366  1  0.81684393  0.64592764  0.69406742  1
  C  C367  1  0.73948880  0.72043503  0.70759583  1
  C  C368  1  0.73977306  0.77948307  0.77281288  1
  C  C369  1  0.84878554  0.77183801  0.76124349  1
  C  C370  1  0.85525632  0.82309879  0.83971454  1
  C  C371  1  0.85510754  0.67637702  0.87141139  1
  C  C372  1  0.84904960  0.72758359  0.93743429  1
  C  C373  1  0.81738000  0.85373549  0.94095768  1
  C  C374  1  0.78191889  0.83620438  0.98681196  1
  C  C375  1  0.78032319  0.90254477  0.03910467  1
  C  C376  1  0.65281332  0.03033926  0.14450117  1
  C  C377  1  0.58644268  0.03175109  0.13200163  1
  C  C378  1  0.60403644  0.06690353  0.23115193  1
  C  C379  1  0.52976969  0.98939145  0.24766513  1
  C  C380  1  0.57317458  0.10524263  0.33929649  1
  C  C381  1  0.47808416  0.09867270  0.14003988  1
  C  C382  1  0.84726356  0.97013747  0.33876682  1
  C  C383  1  0.91365224  0.96834459  0.45904990  1
  C  C384  1  0.89601841  0.93298633  0.52283695  1
  C  C385  1  0.97006306  0.01008182  0.68819451  1
  C  C386  1  0.92685794  0.89422256  0.69252403  1
  C  C387  1  0.02224127  0.90117550  0.68423655  1
  C  C388  1  0.72000534  0.09762925  0.97836794  1
  C  C389  1  0.71865994  0.16371075  0.92271194  1
  C  C390  1  0.68315611  0.14592846  0.80593336  1
  C  C391  1  0.76051201  0.22043479  0.79240528  1
  C  C392  1  0.76022729  0.27948370  0.72718729  1
  C  C393  1  0.65121491  0.27183870  0.73875677  1
  C  C394  1  0.64474475  0.32309931  0.66028651  1
  C  C395  1  0.64489329  0.17637704  0.62859077  1
  C  C396  1  0.65095099  0.22758423  0.56256624  1
  C  C397  1  0.68262096  0.35373617  0.55904253  1
  C  C398  1  0.71808148  0.33620381  0.51318787  1
  C  C399  1  0.71967713  0.40254400  0.46089487  1
  C  C400  1  0.15281439  0.53033899  0.14450157  1
  C  C401  1  0.08644340  0.53175058  0.13200160  1
  C  C402  1  0.10403632  0.56690355  0.23115099  1
  C  C403  1  0.02976941  0.48939138  0.24766497  1
  C  C404  1  0.07317437  0.60524331  0.33929552  1
  C  C405  1  0.97808360  0.59867330  0.14003960  1
  C  C406  1  0.34726489  0.47013782  0.33876650  1
  C  C407  1  0.41365255  0.46834431  0.45904882  1
  C  C408  1  0.39601750  0.43298739  0.52283549  1
  C  C409  1  0.47006358  0.51008185  0.68819582  1
  C  C410  1  0.42685784  0.39422288  0.69252384  1
  C  C411  1  0.52224088  0.40117493  0.68423509  1
  C  C412  1  0.22000618  0.59762832  0.97836734  1
  C  C413  1  0.21866008  0.66370968  0.92270988  1
  C  C414  1  0.18315526  0.64592799  0.80593156  1
  C  C415  1  0.26051250  0.72043346  0.79240620  1
  C  C416  1  0.26022819  0.77948368  0.72718865  1
  C  C417  1  0.15121507  0.77183744  0.73875631  1
  C  C418  1  0.14474444  0.82309846  0.66028710  1
  C  C419  1  0.14489293  0.67637671  0.62858981  1
  C  C420  1  0.15095215  0.72758427  0.56256746  1
  C  C421  1  0.18262059  0.85373713  0.55904313  1
  C  C422  1  0.21808216  0.83620407  0.51318914  1
  C  C423  1  0.21967723  0.90254462  0.46089569  1
  C  C424  1  0.65281226  0.96966034  0.64449877  1
  C  C425  1  0.58644256  0.96824953  0.63200150  1
  C  C426  1  0.60403657  0.93309586  0.73115214  1
  C  C427  1  0.52977019  0.01060950  0.74766570  1
  C  C428  1  0.57317398  0.89475774  0.83929682  1
  C  C429  1  0.47808324  0.90132788  0.64004054  1
  C  C430  1  0.84726335  0.02986197  0.83876516  1
  C  C431  1  0.91365234  0.03165485  0.95904888  1
  C  C432  1  0.89601723  0.06701351  0.02283511  1
  C  C433  1  0.97006302  0.98991751  0.18819443  1
  C  C434  1  0.92685764  0.10577658  0.19252387  1
  C  C435  1  0.02224114  0.09882426  0.18423558  1
  C  C436  1  0.72000577  0.90237027  0.47836815  1
  C  C437  1  0.71866041  0.83628826  0.42271198  1
  C  C438  1  0.68315517  0.85407197  0.30593197  1
  C  C439  1  0.76051231  0.77956523  0.29240744  1
  C  C440  1  0.76022730  0.72051580  0.22718652  1
  C  C441  1  0.65121357  0.72816080  0.23875498  1
  C  C442  1  0.64474451  0.67690126  0.16028739  1
  C  C443  1  0.64489286  0.82362328  0.12858807  1
  C  C444  1  0.65095103  0.77241710  0.06256653  1
  C  C445  1  0.68262020  0.64626408  0.05904155  1
  C  C446  1  0.71808108  0.66379646  0.01318760  1
  C  C447  1  0.71967670  0.59745592  0.96089466  1
  C  C448  1  0.15281330  0.46966004  0.64449943  1
  C  C449  1  0.08644188  0.46824951  0.63200018  1
  C  C450  1  0.10403624  0.43309601  0.73115195  1
  C  C451  1  0.02976982  0.51060937  0.74766338  1
  C  C452  1  0.07317488  0.39475698  0.83929837  1
  C  C453  1  0.97808276  0.40132724  0.64003880  1
  C  C454  1  0.34726338  0.52986106  0.83876574  1
  C  C455  1  0.41365276  0.53165470  0.95904955  1
  C  C456  1  0.39601722  0.56701335  0.02283484  1
  C  C457  1  0.47006321  0.48991749  0.18819469  1
  C  C458  1  0.42685823  0.60577621  0.19252510  1
  C  C459  1  0.52224077  0.59882424  0.18423555  1
  C  C460  1  0.22000678  0.40237032  0.47836980  1
  C  C461  1  0.21866094  0.33628897  0.42271189  1
  C  C462  1  0.18315571  0.35407191  0.30593279  1
  C  C463  1  0.26051246  0.27956590  0.29240601  1
  C  C464  1  0.26022775  0.22051617  0.22718735  1
  C  C465  1  0.15121506  0.22816160  0.23875624  1
  C  C466  1  0.14474508  0.17690141  0.16028765  1
  C  C467  1  0.14489336  0.32362239  0.12858961  1
  C  C468  1  0.15095194  0.27241683  0.06256804  1
  C  C469  1  0.18261991  0.14626433  0.05904214  1
  C  C470  1  0.21808191  0.16379621  0.01318896  1
  C  C471  1  0.21967644  0.09745607  0.96089430  1
  C  C472  1  0.34718695  0.96966061  0.85549999  1
  C  C473  1  0.41355748  0.96824969  0.86799888  1
  C  C474  1  0.39596360  0.93309594  0.76884858  1
  C  C475  1  0.47022998  0.01060947  0.75233510  1
  C  C476  1  0.42682586  0.89475813  0.66070344  1
  C  C477  1  0.52191666  0.90132830  0.85996015  1
  C  C478  1  0.15273677  0.02986329  0.66123425  1
  C  C479  1  0.08634741  0.03165588  0.54095045  1
  C  C480  1  0.10398176  0.06701380  0.47716366  1
  C  C481  1  0.02993694  0.98991817  0.31180536  1
  C  C482  1  0.07314143  0.10577709  0.30747485  1
  C  C483  1  0.97775855  0.09882457  0.31576338  1
  C  C484  1  0.27999431  0.90237140  0.02163163  1
  C  C485  1  0.28133967  0.83628937  0.07728833  1
  C  C486  1  0.31684425  0.85407176  0.19406714  1
  C  C487  1  0.23948734  0.77956597  0.20759353  1
  C  C488  1  0.23977212  0.72051606  0.27281254  1
  C  C489  1  0.34878467  0.72816165  0.26124381  1
  C  C490  1  0.35525483  0.67690123  0.33971226  1
  C  C491  1  0.35510634  0.82362234  0.37140976  1
  C  C492  1  0.34904795  0.77241651  0.43743202  1
  C  C493  1  0.31737970  0.64626419  0.44095762  1
  C  C494  1  0.28191806  0.66379619  0.48681111  1
  C  C495  1  0.28032373  0.59745564  0.53910602  1
  C  C496  1  0.84718697  0.46966099  0.85550039  1
  C  C497  1  0.91355718  0.46824903  0.86799862  1
  C  C498  1  0.89596331  0.43309645  0.76884893  1
  C  C499  1  0.97022952  0.51060846  0.75233482  1
  C  C500  1  0.92682581  0.39475703  0.66070365  1
  C  C501  1  0.02191700  0.40132731  0.85996061  1
  C  C502  1  0.65273615  0.52986232  0.66123349  1
  C  C503  1  0.58634758  0.53165540  0.54095091  1
  C  C504  1  0.60398260  0.56701368  0.47716442  1
  C  C505  1  0.52993647  0.48991744  0.31180489  1
  C  C506  1  0.57314160  0.60577633  0.30747425  1
  C  C507  1  0.47775850  0.59882434  0.31576325  1
  C  C508  1  0.77999433  0.40237155  0.02163266  1
  C  C509  1  0.78133989  0.33628959  0.07728916  1
  C  C510  1  0.81684486  0.35407210  0.19406807  1
  C  C511  1  0.73948755  0.27956581  0.20759390  1
  C  C512  1  0.73977242  0.22051597  0.27281221  1
  C  C513  1  0.84878499  0.22816159  0.26124373  1
  C  C514  1  0.85525539  0.17690161  0.33971190  1
  C  C515  1  0.85510677  0.32362267  0.37141024  1
  C  C516  1  0.84904841  0.27241624  0.43743227  1
  C  C517  1  0.81737995  0.14626369  0.44095747  1
  C  C518  1  0.78191827  0.16379621  0.48681075  1
  C  C519  1  0.78032364  0.09745575  0.53910509  1
  N  N520  1  0.45394238  0.06437834  0.26228101  1
  N  N521  1  0.04592700  0.93518286  0.85453042  1
  N  N522  1  0.31437877  0.20385184  0.75627833  1
  N  N523  1  0.31480669  0.29571794  0.87383546  1
  N  N524  1  0.95394274  0.56437912  0.26227998  1
  N  N525  1  0.54592678  0.43518361  0.85452984  1
  N  N526  1  0.81437989  0.70385190  0.75627982  1
  N  N527  1  0.81480758  0.79571760  0.87383600  1
  N  N528  1  0.54605754  0.06437842  0.23771915  1
  N  N529  1  0.95407325  0.93518276  0.64547032  1
  N  N530  1  0.68562089  0.20385223  0.74372170  1
  N  N531  1  0.68519342  0.29571802  0.62616429  1
  N  N532  1  0.04605733  0.56437858  0.23771865  1
  N  N533  1  0.45407347  0.43518335  0.64547079  1
  N  N534  1  0.18562063  0.70385102  0.74372118  1
  N  N535  1  0.18519345  0.79571794  0.62616460  1
  N  N536  1  0.54605752  0.93562096  0.73771888  1
  N  N537  1  0.95407315  0.06481753  0.14547008  1
  N  N538  1  0.68561933  0.79614793  0.24371977  1
  N  N539  1  0.68519170  0.70428191  0.12616188  1
  N  N540  1  0.04605732  0.43562015  0.73771913  1
  N  N541  1  0.45407296  0.56481728  0.14546949  1
  N  N542  1  0.18562020  0.29614813  0.24372098  1
  N  N543  1  0.18519237  0.20428195  0.12616331  1
  N  N544  1  0.45394218  0.93562094  0.76228132  1
  N  N545  1  0.04592674  0.06481791  0.35452973  1
  N  N546  1  0.31437958  0.79614821  0.25627875  1
  N  N547  1  0.31480714  0.70428210  0.37383621  1
  N  N548  1  0.95394233  0.43562038  0.76228196  1
  N  N549  1  0.54592662  0.56481760  0.35452969  1
  N  N550  1  0.81438003  0.29614818  0.25627905  1
  N  N551  1  0.81480751  0.20428186  0.37383627  1
  O  O552  1  0.34998167  0.99208290  0.42407546  1
  O  O553  1  0.29394592  0.06601845  0.28134936  1
  O  O554  1  0.14984076  0.00863236  0.22393437  1
  O  O555  1  0.20611491  0.93459157  0.19400379  1
  O  O556  1  0.24111371  0.10037691  0.41748254  1
  O  O557  1  0.31616301  0.04446680  0.57781987  1
  O  O558  1  0.24174572  0.39984632  0.06602445  1
  O  O559  1  0.31597791  0.45588391  0.05417593  1
  O  O560  1  0.84998154  0.49208572  0.42407477  1
  O  O561  1  0.79394615  0.56601828  0.28134759  1
  O  O562  1  0.64984186  0.50863269  0.22393549  1
  O  O563  1  0.70611378  0.43459067  0.19400495  1
  O  O564  1  0.74111485  0.60037649  0.41748430  1
  O  O565  1  0.81616393  0.54446574  0.57782298  1
  O  O566  1  0.74174485  0.89984579  0.06602346  1
  O  O567  1  0.81597805  0.95588490  0.05417426  1
  O  O568  1  0.65001761  0.99208322  0.07592305  1
  O  O569  1  0.70605363  0.06601710  0.21865071  1
  O  O570  1  0.85015541  0.00863253  0.27606334  1
  O  O571  1  0.79388677  0.93458823  0.30599838  1
  O  O572  1  0.75888666  0.10037658  0.08251846  1
  O  O573  1  0.68383632  0.04446650  0.92217851  1
  O  O574  1  0.75825491  0.39984647  0.43397644  1
  O  O575  1  0.68402152  0.45588449  0.44582261  1
  O  O576  1  0.15001675  0.49208266  0.07592244  1
  O  O577  1  0.20605414  0.56601728  0.21865068  1
  O  O578  1  0.35015828  0.50863238  0.27606437  1
  O  O579  1  0.29388641  0.43458986  0.30599616  1
  O  O580  1  0.25888620  0.60037494  0.08251652  1
  O  O581  1  0.18383653  0.54446622  0.92217847  1
  O  O582  1  0.25825629  0.89984575  0.43397996  1
  O  O583  1  0.18402027  0.95588312  0.44582102  1
  O  O584  1  0.65001788  0.00791741  0.57592379  1
  O  O585  1  0.70605388  0.93398174  0.71865032  1
  O  O586  1  0.85015802  0.99136705  0.77606494  1
  O  O587  1  0.79388500  0.06540809  0.80599579  1
  O  O588  1  0.75888624  0.89962391  0.58251646  1
  O  O589  1  0.68383782  0.95553308  0.42218014  1
  O  O590  1  0.75825479  0.60015310  0.93397682  1
  O  O591  1  0.68402253  0.54411604  0.94582430  1
  O  O592  1  0.15001910  0.50791580  0.57592653  1
  O  O593  1  0.20605261  0.43398215  0.71864937  1
  O  O594  1  0.35015770  0.49136657  0.77606566  1
  O  O595  1  0.29388535  0.56540739  0.80599632  1
  O  O596  1  0.25888732  0.39962360  0.58251727  1
  O  O597  1  0.18383741  0.45553465  0.42217885  1
  O  O598  1  0.25825502  0.10015342  0.93397664  1
  O  O599  1  0.18402120  0.04411502  0.94582306  1
  O  O600  1  0.34998180  0.00791716  0.92407567  1
  O  O601  1  0.29394630  0.93398191  0.78134950  1
  O  O602  1  0.14984283  0.99136726  0.72393596  1
  O  O603  1  0.20611352  0.06541010  0.69400245  1
  O  O604  1  0.24111317  0.89962305  0.91748148  1
  O  O605  1  0.31616251  0.95553383  0.07782023  1
  O  O606  1  0.24174551  0.60015284  0.56602236  1
  O  O607  1  0.31597821  0.54411515  0.55417605  1
  O  O608  1  0.84998257  0.50791693  0.92407676  1
  O  O609  1  0.79394611  0.43398293  0.78134989  1
  O  O610  1  0.64984347  0.49136788  0.72393607  1
  O  O611  1  0.70611422  0.56541078  0.69400272  1
  O  O612  1  0.74111407  0.39962392  0.91748325  1
  O  O613  1  0.81616288  0.45553417  0.07782186  1
  O  O614  1  0.74174517  0.10015338  0.56602233  1
  O  O615  1  0.81597777  0.04411544  0.55417496  1
