# generated using pymatgen
data_CuH8C12(NO2)2
_symmetry_space_group_name_H-M   'P 1'
_cell_length_a   4.53149050
_cell_length_b   25.21983926
_cell_length_c   10.95691031
_cell_angle_alpha   89.99929565
_cell_angle_beta   93.89487497
_cell_angle_gamma   89.99952665
_symmetry_Int_Tables_number   1
_chemical_formula_structural   CuH8C12(NO2)2
_chemical_formula_sum   'Cu4 H32 C48 N8 O16'
_cell_volume   1249.30152409
_cell_formula_units_Z   4
loop_
 _symmetry_equiv_pos_site_id
 _symmetry_equiv_pos_as_xyz
  1  'x, y, z'
loop_
 _atom_site_type_symbol
 _atom_site_label
 _atom_site_symmetry_multiplicity
 _atom_site_fract_x
 _atom_site_fract_y
 _atom_site_fract_z
 _atom_site_occupancy
 _atom_site_charge
  Cu  Cu0  1  0.04757856  0.11523426  0.78262439  1 0.772585
  Cu  Cu1  1  0.54757636  0.61523041  0.78262838  1 0.7482
  Cu  Cu2  1  0.04758292  0.88477319  0.28264514  1 0.747938
  Cu  Cu3  1  0.54758054  0.38476536  0.28262503  1 0.772555
  H  H4  1  0.37791286  0.33143641  0.51718035  1 0.105964
  H  H5  1  0.53748262  0.24676524  0.62767785  1 0.119416
  H  H6  1  0.23532151  0.23258312  0.38473358  1 0.124484
  H  H7  1  0.03024466  0.31282380  0.27389961  1 0.090184
  H  H8  1  0.52977221  0.89435171  0.10630109  1 0.095898
  H  H9  1  0.30087294  0.96335093  0.96601411  1 0.127862
  H  H10  1  0.04212285  0.06373037  0.06240871  1 0.125105
  H  H11  1  0.22655512  0.99380007  0.21579277  1 0.09842
  H  H12  1  0.87791105  0.83143675  0.51718347  1 0.106622
  H  H13  1  0.03747321  0.74676507  0.62768040  1 0.11936
  H  H14  1  0.73531996  0.73258227  0.38473243  1 0.12474
  H  H15  1  0.53025361  0.81282383  0.27389799  1 0.091184
  H  H16  1  0.02977698  0.39435193  0.10630089  1 0.095631
  H  H17  1  0.80087927  0.46335237  0.96601330  1 0.127806
  H  H18  1  0.54211646  0.56373035  0.06240827  1 0.124698
  H  H19  1  0.72655094  0.49379968  0.21578869  1 0.098125
  H  H20  1  0.37791137  0.66856427  0.01718107  1 0.106515
  H  H21  1  0.53748587  0.75323483  0.12767802  1 0.11944
  H  H22  1  0.23532333  0.76741693  0.88473332  1 0.124757
  H  H23  1  0.03024645  0.68717574  0.77389940  1 0.091063
  H  H24  1  0.52977490  0.10564865  0.60629918  1 0.095635
  H  H25  1  0.30087814  0.03664735  0.46601439  1 0.127822
  H  H26  1  0.04211869  0.93626902  0.56240977  1 0.124676
  H  H27  1  0.22655114  0.00620114  0.71578929  1 0.098107
  H  H28  1  0.87791567  0.16856483  0.01718005  1 0.106016
  H  H29  1  0.03748763  0.25323660  0.12767526  1 0.119409
  H  H30  1  0.73532400  0.26741808  0.88473418  1 0.12446
  H  H31  1  0.53024829  0.18717659  0.77389890  1 0.090243
  H  H32  1  0.02977445  0.60564777  0.60630018  1 0.095886
  H  H33  1  0.80087575  0.53664721  0.46601251  1 0.127847
  H  H34  1  0.54211057  0.43626912  0.56240696  1 0.125239
  H  H35  1  0.72654868  0.50620029  0.71578895  1 0.098415
  C  C36  1  0.55213012  0.30611875  0.48689810  1 0.075037
  C  C37  1  0.66039534  0.26218387  0.55388515  1 -0.129095
  C  C38  1  0.91216812  0.23628404  0.52168738  1 -0.00045
  C  C39  1  0.05540336  0.25499944  0.42017006  1 -0.130406
  C  C40  1  0.93061214  0.29805900  0.35501100  1 0.093969
  C  C41  1  0.02782395  0.18827000  0.58926167  1 0.545613
  C  C42  1  0.63280078  0.93317897  0.09878466  1 0.098397
  C  C43  1  0.49582869  0.97288396  0.02490729  1 -0.126157
  C  C44  1  0.64656626  0.02116020  0.01249922  1 -0.009301
  C  C45  1  0.91795010  0.02764915  0.07618535  1 -0.130947
  C  C46  1  0.03772878  0.98732783  0.15147001  1 0.073955
  C  C47  1  0.53729045  0.06495194  0.92864703  1 0.563836
  C  C48  1  0.05209869  0.80612639  0.48689120  1 0.074257
  C  C49  1  0.16041406  0.76218160  0.55388281  1 -0.128968
  C  C50  1  0.41215987  0.73628464  0.52168703  1 -0.000672
  C  C51  1  0.55539764  0.75499665  0.42018024  1 -0.130534
  C  C52  1  0.43056422  0.79806885  0.35500530  1 0.093269
  C  C53  1  0.52781450  0.68826551  0.58927055  1 0.544391
  C  C54  1  0.13279335  0.43318801  0.09877060  1 0.099682
  C  C55  1  0.99582698  0.47288002  0.02490561  1 -0.126371
  C  C56  1  0.14657110  0.52116187  0.01249795  1 -0.008824
  C  C57  1  0.41796751  0.52764875  0.07618765  1 -0.131703
  C  C58  1  0.53772063  0.48733592  0.15145532  1 0.074948
  C  C59  1  0.03728938  0.56494913  0.92865237  1 0.561914
  C  C60  1  0.55213481  0.69388135  0.98689875  1 0.074359
  C  C61  1  0.66039490  0.73781601  0.05388617  1 -0.129151
  C  C62  1  0.91215153  0.76371173  0.02169028  1 -0.000518
  C  C63  1  0.05541406  0.74500311  0.92016964  1 -0.130385
  C  C64  1  0.93060249  0.70194035  0.85501400  1 0.093062
  C  C65  1  0.02785165  0.81173077  0.08925782  1 0.5442
  C  C66  1  0.63279845  0.06681206  0.59877024  1 0.09959
  C  C67  1  0.49582839  0.02711943  0.52490601  1 -0.126289
  C  C68  1  0.64656254  0.97884064  0.51250166  1 -0.008891
  C  C69  1  0.91796988  0.97234920  0.57618553  1 -0.131777
  C  C70  1  0.03771278  0.01266583  0.65145415  1 0.075085
  C  C71  1  0.53732837  0.93503976  0.42865043  1 0.561905
  C  C72  1  0.05213242  0.19388266  0.98689785  1 0.074991
  C  C73  1  0.16039849  0.23781737  0.05388394  1 -0.129118
  C  C74  1  0.41217012  0.26371673  0.02168592  1 -0.000382
  C  C75  1  0.55540520  0.24500155  0.92016924  1 -0.130345
  C  C76  1  0.43061672  0.20194192  0.85501031  1 0.093909
  C  C77  1  0.52782385  0.31173145  0.08926116  1 0.545656
  C  C78  1  0.13278934  0.56681213  0.59876990  1 0.098248
  C  C79  1  0.99582678  0.52712008  0.52490595  1 -0.126025
  C  C80  1  0.14657040  0.47883812  0.51249770  1 -0.009174
  C  C81  1  0.41796392  0.47235140  0.57618720  1 -0.131125
  C  C82  1  0.53772086  0.51266387  0.65145553  1 0.073957
  C  C83  1  0.03729345  0.43504837  0.42865044  1 0.563979
  N  N84  1  0.69271020  0.32374592  0.38937291  1 -0.205228
  N  N85  1  0.89195130  0.94063812  0.16265382  1 -0.220892
  N  N86  1  0.19277179  0.82372975  0.38938498  1 -0.197441
  N  N87  1  0.39196533  0.44062931  0.16268020  1 -0.227792
  N  N88  1  0.69271029  0.67625521  0.88937368  1 -0.197569
  N  N89  1  0.89197089  0.05937146  0.66267954  1 -0.227783
  N  N90  1  0.19271376  0.17625515  0.88937233  1 -0.205243
  N  N91  1  0.39196511  0.55937149  0.66268076  1 -0.220918
  O  O92  1  0.87169823  0.17293693  0.67777530  1 -0.52039
  O  O93  1  0.25908243  0.16669387  0.55771044  1 -0.525314
  O  O94  1  0.28748630  0.05727687  0.86847928  1 -0.538278
  O  O95  1  0.70078544  0.10499156  0.92153010  1 -0.569825
  O  O96  1  0.37169961  0.67293804  0.67777076  1 -0.513214
  O  O97  1  0.75908053  0.66669560  0.55770630  1 -0.524035
  O  O98  1  0.78748234  0.55727976  0.86847830  1 -0.531689
  O  O99  1  0.20078441  0.60499543  0.92152742  1 -0.567699
  O  O100  1  0.87167126  0.82705662  0.17775383  1 -0.513267
  O  O101  1  0.25906585  0.83330329  0.05771322  1 -0.523906
  O  O102  1  0.28750473  0.94273373  0.36847681  1 -0.531979
  O  O103  1  0.70076775  0.89500625  0.42153865  1 -0.567352
  O  O104  1  0.37170250  0.32706442  0.17777347  1 -0.520412
  O  O105  1  0.75908141  0.33330666  0.05770951  1 -0.525396
  O  O106  1  0.78748634  0.44272183  0.36847788  1 -0.538392
  O  O107  1  0.20078522  0.39500682  0.42152926  1 -0.569895
