# generated using pymatgen
data_UP3H9(CO3)3
_symmetry_space_group_name_H-M   'P 1'
_cell_length_a   23.96873528
_cell_length_b   10.98384916
_cell_length_c   12.95753195
_cell_angle_alpha   90.00000000
_cell_angle_beta   87.66895153
_cell_angle_gamma   90.00000000
_symmetry_Int_Tables_number   1
_chemical_formula_structural   UP3H9(CO3)3
_chemical_formula_sum   'U8 P24 H72 C24 O72'
_cell_volume   3408.49326722
_cell_formula_units_Z   8
loop_
 _symmetry_equiv_pos_site_id
 _symmetry_equiv_pos_as_xyz
  1  'x, y, z'
loop_
 _atom_site_type_symbol
 _atom_site_label
 _atom_site_symmetry_multiplicity
 _atom_site_fract_x
 _atom_site_fract_y
 _atom_site_fract_z
 _atom_site_occupancy
 _atom_site_charge
  U  U0  1  0.30723466  0.04368264  0.08046780  1 1.994616
  U  U1  1  0.80723466  0.54368264  0.08046780  1 1.994616
  U  U2  1  0.69276534  0.04368264  0.41953220  1 1.994616
  U  U3  1  0.19276534  0.54368264  0.41953220  1 1.994616
  U  U4  1  0.69276534  0.95631736  0.91953220  1 1.994616
  U  U5  1  0.19276534  0.45631736  0.91953220  1 1.994616
  U  U6  1  0.30723466  0.95631736  0.58046780  1 1.994616
  U  U7  1  0.80723466  0.45631736  0.58046780  1 1.994616
  P  P8  1  0.32981662  0.15656365  0.35457070  1 1.39569
  P  P9  1  0.22522795  0.28685267  0.16253881  1 1.380163
  P  P10  1  0.42981158  0.09072740  0.08059961  1 1.257221
  P  P11  1  0.82981662  0.65656365  0.35457070  1 1.39569
  P  P12  1  0.72522795  0.78685267  0.16253881  1 1.380163
  P  P13  1  0.92981158  0.59072740  0.08059961  1 1.257221
  P  P14  1  0.67018338  0.15656365  0.14542930  1 1.39569
  P  P15  1  0.77477205  0.28685267  0.33746119  1 1.380163
  P  P16  1  0.57018842  0.09072740  0.41940039  1 1.257221
  P  P17  1  0.17018338  0.65656365  0.14542930  1 1.39569
  P  P18  1  0.27477205  0.78685267  0.33746119  1 1.380163
  P  P19  1  0.07018842  0.59072740  0.41940039  1 1.257221
  P  P20  1  0.67018338  0.84343635  0.64542930  1 1.39569
  P  P21  1  0.77477205  0.71314733  0.83746119  1 1.380163
  P  P22  1  0.57018842  0.90927260  0.91940039  1 1.257221
  P  P23  1  0.17018338  0.34343635  0.64542930  1 1.39569
  P  P24  1  0.27477205  0.21314733  0.83746119  1 1.380163
  P  P25  1  0.07018842  0.40927260  0.91940039  1 1.257221
  P  P26  1  0.32981662  0.84343635  0.85457070  1 1.39569
  P  P27  1  0.22522795  0.71314733  0.66253881  1 1.380163
  P  P28  1  0.42981158  0.90927260  0.58059961  1 1.257221
  P  P29  1  0.82981662  0.34343635  0.85457070  1 1.39569
  P  P30  1  0.72522795  0.21314733  0.66253881  1 1.380163
  P  P31  1  0.92981158  0.40927260  0.58059961  1 1.257221
  H  H32  1  0.41224426  0.18957533  0.27765092  1 0.386328
  H  H33  1  0.16019985  0.39990093  0.23134283  1 0.398194
  H  H34  1  0.50455815  0.16159509  0.15952606  1 0.413245
  H  H35  1  0.24995755  0.27901461  0.37453224  1 0.133128
  H  H36  1  0.31192387  0.36435216  0.38521804  1 0.148843
  H  H37  1  0.32306981  0.32303243  0.17672520  1 0.143505
  H  H38  1  0.28223911  0.44371043  0.22690316  1 0.160937
  H  H39  1  0.45576986  0.01770860  0.91660446  1 0.148577
  H  H40  1  0.50443184  0.13003661  0.95316061  1 0.174287
  H  H41  1  0.91224426  0.68957533  0.27765092  1 0.386328
  H  H42  1  0.66019985  0.89990093  0.23134283  1 0.398194
  H  H43  1  0.00455815  0.66159509  0.15952606  1 0.413245
  H  H44  1  0.74995755  0.77901461  0.37453224  1 0.133128
  H  H45  1  0.81192387  0.86435216  0.38521804  1 0.148843
  H  H46  1  0.82306981  0.82303243  0.17672520  1 0.143505
  H  H47  1  0.78223911  0.94371043  0.22690316  1 0.160937
  H  H48  1  0.95576986  0.51770860  0.91660446  1 0.148577
  H  H49  1  0.00443184  0.63003661  0.95316061  1 0.174287
  H  H50  1  0.58775574  0.18957533  0.22234908  1 0.386328
  H  H51  1  0.83980015  0.39990093  0.26865717  1 0.398194
  H  H52  1  0.49544185  0.16159509  0.34047394  1 0.413245
  H  H53  1  0.75004245  0.27901461  0.12546776  1 0.133128
  H  H54  1  0.68807613  0.36435216  0.11478196  1 0.148843
  H  H55  1  0.67693019  0.32303243  0.32327480  1 0.143505
  H  H56  1  0.71776089  0.44371043  0.27309684  1 0.160937
  H  H57  1  0.54423014  0.01770860  0.58339554  1 0.148577
  H  H58  1  0.49556816  0.13003661  0.54683939  1 0.174287
  H  H59  1  0.08775574  0.68957533  0.22234908  1 0.386328
  H  H60  1  0.33980015  0.89990093  0.26865717  1 0.398194
  H  H61  1  0.99544185  0.66159509  0.34047394  1 0.413245
  H  H62  1  0.25004245  0.77901461  0.12546776  1 0.133128
  H  H63  1  0.18807613  0.86435216  0.11478196  1 0.148843
  H  H64  1  0.17693019  0.82303243  0.32327480  1 0.143505
  H  H65  1  0.21776089  0.94371043  0.27309684  1 0.160937
  H  H66  1  0.04423014  0.51770860  0.58339554  1 0.148577
  H  H67  1  0.99556816  0.63003661  0.54683939  1 0.174287
  H  H68  1  0.58775574  0.81042467  0.72234908  1 0.386328
  H  H69  1  0.83980015  0.60009907  0.76865717  1 0.398194
  H  H70  1  0.49544185  0.83840491  0.84047394  1 0.413245
  H  H71  1  0.75004245  0.72098539  0.62546776  1 0.133128
  H  H72  1  0.68807613  0.63564784  0.61478196  1 0.148843
  H  H73  1  0.67693019  0.67696757  0.82327480  1 0.143505
  H  H74  1  0.71776089  0.55628957  0.77309684  1 0.160937
  H  H75  1  0.54423014  0.98229140  0.08339554  1 0.148577
  H  H76  1  0.49556816  0.86996339  0.04683939  1 0.174287
  H  H77  1  0.08775574  0.31042467  0.72234908  1 0.386328
  H  H78  1  0.33980015  0.10009907  0.76865717  1 0.398194
  H  H79  1  0.99544185  0.33840491  0.84047394  1 0.413245
  H  H80  1  0.25004245  0.22098539  0.62546776  1 0.133128
  H  H81  1  0.18807613  0.13564784  0.61478196  1 0.148843
  H  H82  1  0.17693019  0.17696757  0.82327480  1 0.143505
  H  H83  1  0.21776089  0.05628957  0.77309684  1 0.160937
  H  H84  1  0.04423014  0.48229140  0.08339554  1 0.148577
  H  H85  1  0.99556816  0.36996339  0.04683939  1 0.174287
  H  H86  1  0.41224426  0.81042467  0.77765092  1 0.386328
  H  H87  1  0.16019985  0.60009907  0.73134283  1 0.398194
  H  H88  1  0.50455815  0.83840491  0.65952606  1 0.413245
  H  H89  1  0.24995755  0.72098539  0.87453224  1 0.133128
  H  H90  1  0.31192387  0.63564784  0.88521804  1 0.148843
  H  H91  1  0.32306981  0.67696757  0.67672520  1 0.143505
  H  H92  1  0.28223911  0.55628957  0.72690316  1 0.160937
  H  H93  1  0.45576986  0.98229140  0.41660446  1 0.148577
  H  H94  1  0.50443184  0.86996339  0.45316061  1 0.174287
  H  H95  1  0.91224426  0.31042467  0.77765092  1 0.386328
  H  H96  1  0.66019985  0.10009907  0.73134283  1 0.398194
  H  H97  1  0.00455815  0.33840491  0.65952606  1 0.413245
  H  H98  1  0.74995755  0.22098539  0.87453224  1 0.133128
  H  H99  1  0.81192387  0.13564784  0.88521804  1 0.148843
  H  H100  1  0.82306981  0.17696757  0.67672520  1 0.143505
  H  H101  1  0.78223911  0.05628957  0.72690316  1 0.160937
  H  H102  1  0.95576986  0.48229140  0.41660446  1 0.148577
  H  H103  1  0.00443184  0.36996339  0.45316061  1 0.174287
  C  C104  1  0.29130881  0.29648712  0.33722792  1 -0.442226
  C  C105  1  0.28600420  0.34386935  0.22659613  1 -0.443805
  C  C106  1  0.48065835  0.05017864  0.98069810  1 -0.410359
  C  C107  1  0.79130881  0.79648712  0.33722792  1 -0.442226
  C  C108  1  0.78600420  0.84386935  0.22659613  1 -0.443805
  C  C109  1  0.98065835  0.55017864  0.98069810  1 -0.410359
  C  C110  1  0.70869119  0.29648712  0.16277208  1 -0.442226
  C  C111  1  0.71399580  0.34386935  0.27340387  1 -0.443805
  C  C112  1  0.51934165  0.05017864  0.51930190  1 -0.410359
  C  C113  1  0.20869119  0.79648712  0.16277208  1 -0.442226
  C  C114  1  0.21399580  0.84386935  0.27340387  1 -0.443805
  C  C115  1  0.01934165  0.55017864  0.51930190  1 -0.410359
  C  C116  1  0.70869119  0.70351288  0.66277208  1 -0.442226
  C  C117  1  0.71399580  0.65613065  0.77340387  1 -0.443805
  C  C118  1  0.51934165  0.94982136  0.01930190  1 -0.410359
  C  C119  1  0.20869119  0.20351288  0.66277208  1 -0.442226
  C  C120  1  0.21399580  0.15613065  0.77340387  1 -0.443805
  C  C121  1  0.01934165  0.44982136  0.01930190  1 -0.410359
  C  C122  1  0.29130881  0.70351288  0.83722792  1 -0.442226
  C  C123  1  0.28600420  0.65613065  0.72659613  1 -0.443805
  C  C124  1  0.48065835  0.94982136  0.48069810  1 -0.410359
  C  C125  1  0.79130881  0.20351288  0.83722792  1 -0.442226
  C  C126  1  0.78600420  0.15613065  0.72659613  1 -0.443805
  C  C127  1  0.98065835  0.44982136  0.48069810  1 -0.410359
  O  O128  1  0.31680539  0.11752430  0.46573538  1 -0.827078
  O  O129  1  0.31862560  0.06421172  0.27038529  1 -0.863789
  O  O130  1  0.39569988  0.19055882  0.34859916  1 -0.659991
  O  O131  1  0.17233017  0.31404357  0.23827828  1 -0.642018
  O  O132  1  0.22119665  0.35967362  0.06324672  1 -0.836175
  O  O133  1  0.22856725  0.14923537  0.15040182  1 -0.807456
  O  O134  1  0.40374542  0.97650044  0.12727113  1 -0.779472
  O  O135  1  0.38387114  0.17669304  0.04587718  1 -0.774721
  O  O136  1  0.46384954  0.16598208  0.16625815  1 -0.647644
  O  O137  1  0.81680539  0.61752430  0.46573538  1 -0.827078
  O  O138  1  0.81862560  0.56421172  0.27038529  1 -0.863789
  O  O139  1  0.89569988  0.69055882  0.34859916  1 -0.659991
  O  O140  1  0.67233017  0.81404357  0.23827828  1 -0.642018
  O  O141  1  0.72119665  0.85967362  0.06324672  1 -0.836175
  O  O142  1  0.72856725  0.64923537  0.15040182  1 -0.807456
  O  O143  1  0.90374542  0.47650044  0.12727113  1 -0.779472
  O  O144  1  0.88387114  0.67669304  0.04587718  1 -0.774721
  O  O145  1  0.96384954  0.66598208  0.16625815  1 -0.647644
  O  O146  1  0.68319461  0.11752430  0.03426462  1 -0.827078
  O  O147  1  0.68137440  0.06421172  0.22961471  1 -0.863789
  O  O148  1  0.60430012  0.19055882  0.15140084  1 -0.659991
  O  O149  1  0.82766983  0.31404357  0.26172172  1 -0.642018
  O  O150  1  0.77880335  0.35967362  0.43675328  1 -0.836175
  O  O151  1  0.77143275  0.14923537  0.34959818  1 -0.807456
  O  O152  1  0.59625458  0.97650044  0.37272887  1 -0.779472
  O  O153  1  0.61612886  0.17669304  0.45412282  1 -0.774721
  O  O154  1  0.53615046  0.16598208  0.33374185  1 -0.647644
  O  O155  1  0.18319461  0.61752430  0.03426462  1 -0.827078
  O  O156  1  0.18137440  0.56421172  0.22961471  1 -0.863789
  O  O157  1  0.10430012  0.69055882  0.15140084  1 -0.659991
  O  O158  1  0.32766983  0.81404357  0.26172172  1 -0.642018
  O  O159  1  0.27880335  0.85967362  0.43675328  1 -0.836175
  O  O160  1  0.27143275  0.64923537  0.34959818  1 -0.807456
  O  O161  1  0.09625458  0.47650044  0.37272887  1 -0.779472
  O  O162  1  0.11612886  0.67669304  0.45412282  1 -0.774721
  O  O163  1  0.03615046  0.66598208  0.33374185  1 -0.647644
  O  O164  1  0.68319461  0.88247570  0.53426462  1 -0.827078
  O  O165  1  0.68137440  0.93578828  0.72961471  1 -0.863789
  O  O166  1  0.60430012  0.80944118  0.65140084  1 -0.659991
  O  O167  1  0.82766983  0.68595643  0.76172172  1 -0.642018
  O  O168  1  0.77880335  0.64032638  0.93675328  1 -0.836175
  O  O169  1  0.77143275  0.85076463  0.84959818  1 -0.807456
  O  O170  1  0.59625458  0.02349956  0.87272887  1 -0.779472
  O  O171  1  0.61612886  0.82330696  0.95412282  1 -0.774721
  O  O172  1  0.53615046  0.83401792  0.83374185  1 -0.647644
  O  O173  1  0.18319461  0.38247570  0.53426462  1 -0.827078
  O  O174  1  0.18137440  0.43578828  0.72961471  1 -0.863789
  O  O175  1  0.10430012  0.30944118  0.65140084  1 -0.659991
  O  O176  1  0.32766983  0.18595643  0.76172172  1 -0.642018
  O  O177  1  0.27880335  0.14032638  0.93675328  1 -0.836175
  O  O178  1  0.27143275  0.35076463  0.84959818  1 -0.807456
  O  O179  1  0.09625458  0.52349956  0.87272887  1 -0.779472
  O  O180  1  0.11612886  0.32330696  0.95412282  1 -0.774721
  O  O181  1  0.03615046  0.33401792  0.83374185  1 -0.647644
  O  O182  1  0.31680539  0.88247570  0.96573538  1 -0.827078
  O  O183  1  0.31862560  0.93578828  0.77038529  1 -0.863789
  O  O184  1  0.39569988  0.80944118  0.84859916  1 -0.659991
  O  O185  1  0.17233017  0.68595643  0.73827828  1 -0.642018
  O  O186  1  0.22119665  0.64032638  0.56324672  1 -0.836175
  O  O187  1  0.22856725  0.85076463  0.65040182  1 -0.807456
  O  O188  1  0.40374542  0.02349956  0.62727113  1 -0.779472
  O  O189  1  0.38387114  0.82330696  0.54587718  1 -0.774721
  O  O190  1  0.46384954  0.83401792  0.66625815  1 -0.647644
  O  O191  1  0.81680539  0.38247570  0.96573538  1 -0.827078
  O  O192  1  0.81862560  0.43578828  0.77038529  1 -0.863789
  O  O193  1  0.89569988  0.30944118  0.84859916  1 -0.659991
  O  O194  1  0.67233017  0.18595643  0.73827828  1 -0.642018
  O  O195  1  0.72119665  0.14032638  0.56324672  1 -0.836175
  O  O196  1  0.72856725  0.35076463  0.65040182  1 -0.807456
  O  O197  1  0.90374542  0.52349956  0.62727113  1 -0.779472
  O  O198  1  0.88387114  0.32330696  0.54587718  1 -0.774721
  O  O199  1  0.96384954  0.33401792  0.66625815  1 -0.647644
