# generated using pymatgen
data_CuH12C14BrN6
_symmetry_space_group_name_H-M   'P 1'
_cell_length_a   21.77088095
_cell_length_b   7.46573304
_cell_length_c   16.01913123
_cell_angle_alpha   90.00000000
_cell_angle_beta   90.00000000
_cell_angle_gamma   90.00000000
_symmetry_Int_Tables_number   1
_chemical_formula_structural   CuH12C14BrN6
_chemical_formula_sum   'Cu4 H48 C56 Br4 N24'
_cell_volume   2603.67886670
_cell_formula_units_Z   4
loop_
 _symmetry_equiv_pos_site_id
 _symmetry_equiv_pos_as_xyz
  1  'x, y, z'
loop_
 _atom_site_type_symbol
 _atom_site_label
 _atom_site_symmetry_multiplicity
 _atom_site_fract_x
 _atom_site_fract_y
 _atom_site_fract_z
 _atom_site_occupancy
 _atom_site_charge
  Cu  Cu0  1  -0.00000000  0.50000000  0.50000000  1 0.536716
  Cu  Cu1  1  0.50000000  -0.00000000  -0.00000000  1 0.536716
  Cu  Cu2  1  -0.00000000  -0.00000000  0.50000000  1 0.536716
  Cu  Cu3  1  0.50000000  0.50000000  -0.00000000  1 0.536716
  H  H4  1  0.10670751  0.53415999  0.64021205  1 0.118243
  H  H5  1  0.26767750  0.06881258  0.60300616  1 0.096935
  H  H6  1  0.17010356  0.54288958  0.76220304  1 0.118119
  H  H7  1  0.60670751  0.03415999  0.14021205  1 0.118243
  H  H8  1  0.76767750  0.56881258  0.10300616  1 0.096935
  H  H9  1  0.67010356  0.04288958  0.26220304  1 0.118119
  H  H10  1  0.89329249  0.96584001  0.64021205  1 0.118243
  H  H11  1  0.73232250  0.43118742  0.60300616  1 0.096935
  H  H12  1  0.82989644  0.95711042  0.76220304  1 0.118119
  H  H13  1  0.39329249  0.46584001  0.14021205  1 0.118243
  H  H14  1  0.23232250  0.93118742  0.10300616  1 0.096935
  H  H15  1  0.32989644  0.45711042  0.26220304  1 0.118119
  H  H16  1  0.89329249  0.03415999  0.35978795  1 0.118243
  H  H17  1  0.73232250  0.56881258  0.39699384  1 0.096935
  H  H18  1  0.82989644  0.04288958  0.23779696  1 0.118119
  H  H19  1  0.39329249  0.53415999  0.85978795  1 0.118243
  H  H20  1  0.23232250  0.06881258  0.89699384  1 0.096935
  H  H21  1  0.32989644  0.54288958  0.73779696  1 0.118119
  H  H22  1  0.10670751  0.46584001  0.35978795  1 0.118243
  H  H23  1  0.26767750  0.93118742  0.39699384  1 0.096935
  H  H24  1  0.17010356  0.45711042  0.23779696  1 0.118119
  H  H25  1  0.60670751  0.96584001  0.85978795  1 0.118243
  H  H26  1  0.76767750  0.43118742  0.89699384  1 0.096935
  H  H27  1  0.67010356  0.95711042  0.73779696  1 0.118119
  H  H28  1  0.89329249  0.46584001  0.35978795  1 0.118243
  H  H29  1  0.73232250  0.93118742  0.39699384  1 0.096935
  H  H30  1  0.82989644  0.45711042  0.23779696  1 0.118119
  H  H31  1  0.39329249  0.96584001  0.85978795  1 0.118243
  H  H32  1  0.23232250  0.43118742  0.89699384  1 0.096935
  H  H33  1  0.32989644  0.95711042  0.73779696  1 0.118119
  H  H34  1  0.10670751  0.03415999  0.35978795  1 0.118243
  H  H35  1  0.26767750  0.56881258  0.39699384  1 0.096935
  H  H36  1  0.17010356  0.04288958  0.23779696  1 0.118119
  H  H37  1  0.60670751  0.53415999  0.85978795  1 0.118243
  H  H38  1  0.76767750  0.06881258  0.89699384  1 0.096935
  H  H39  1  0.67010356  0.54288958  0.73779696  1 0.118119
  H  H40  1  0.10670751  0.96584001  0.64021205  1 0.118243
  H  H41  1  0.26767750  0.43118742  0.60300616  1 0.096935
  H  H42  1  0.17010356  0.95711042  0.76220304  1 0.118119
  H  H43  1  0.60670751  0.46584001  0.14021205  1 0.118243
  H  H44  1  0.76767750  0.93118742  0.10300616  1 0.096935
  H  H45  1  0.67010356  0.45711042  0.26220304  1 0.118119
  H  H46  1  0.89329249  0.53415999  0.64021205  1 0.118243
  H  H47  1  0.73232250  0.06881258  0.60300616  1 0.096935
  H  H48  1  0.82989644  0.54288958  0.76220304  1 0.118119
  H  H49  1  0.39329249  0.03415999  0.14021205  1 0.118243
  H  H50  1  0.23232250  0.56881258  0.10300616  1 0.096935
  H  H51  1  0.32989644  0.04288958  0.26220304  1 0.118119
  C  C52  1  0.10022065  0.39563799  0.62225009  1 0.09998
  C  C53  1  0.28861744  0.15425859  0.64995848  1 -0.10416
  C  C54  1  0.17898460  0.40533862  0.77979293  1 -0.218347
  C  C55  1  0.60022065  0.89563799  0.12225009  1 0.09998
  C  C56  1  0.78861744  0.65425859  0.14995848  1 -0.10416
  C  C57  1  0.67898460  0.90533862  0.27979293  1 -0.218347
  C  C58  1  0.89977935  0.10436201  0.62225009  1 0.09998
  C  C59  1  0.71138256  0.34574141  0.64995848  1 -0.10416
  C  C60  1  0.82101540  0.09466138  0.77979293  1 -0.218347
  C  C61  1  0.39977935  0.60436201  0.12225009  1 0.09998
  C  C62  1  0.21138256  0.84574141  0.14995848  1 -0.10416
  C  C63  1  0.32101540  0.59466138  0.27979293  1 -0.218347
  C  C64  1  0.89977935  0.89563799  0.37774991  1 0.09998
  C  C65  1  0.71138256  0.65425859  0.35004152  1 -0.10416
  C  C66  1  0.82101540  0.90533862  0.22020707  1 -0.218347
  C  C67  1  0.39977935  0.39563799  0.87774991  1 0.09998
  C  C68  1  0.21138256  0.15425859  0.85004152  1 -0.10416
  C  C69  1  0.32101540  0.40533862  0.72020707  1 -0.218347
  C  C70  1  0.10022065  0.60436201  0.37774991  1 0.09998
  C  C71  1  0.28861744  0.84574141  0.35004152  1 -0.10416
  C  C72  1  0.17898460  0.59466138  0.22020707  1 -0.218347
  C  C73  1  0.60022065  0.10436201  0.87774991  1 0.09998
  C  C74  1  0.78861744  0.34574141  0.85004152  1 -0.10416
  C  C75  1  0.67898460  0.09466138  0.72020707  1 -0.218347
  C  C76  1  0.89977935  0.60436201  0.37774991  1 0.099976
  C  C77  1  0.71138256  0.84574141  0.35004152  1 -0.10416
  C  C78  1  0.82101540  0.59466138  0.22020707  1 -0.218347
  C  C79  1  0.39977935  0.10436201  0.87774991  1 0.099976
  C  C80  1  0.21138256  0.34574141  0.85004152  1 -0.10416
  C  C81  1  0.32101540  0.09466138  0.72020707  1 -0.218347
  C  C82  1  0.10022065  0.89563799  0.37774991  1 0.099976
  C  C83  1  0.28861744  0.65425859  0.35004152  1 -0.10416
  C  C84  1  0.17898460  0.90533862  0.22020707  1 -0.218347
  C  C85  1  0.60022065  0.39563799  0.87774991  1 0.099976
  C  C86  1  0.78861744  0.15425859  0.85004152  1 -0.10416
  C  C87  1  0.67898460  0.40533862  0.72020707  1 -0.218347
  C  C88  1  0.10022065  0.10436201  0.62225009  1 0.099976
  C  C89  1  0.28861744  0.34574141  0.64995848  1 -0.10416
  C  C90  1  0.17898460  0.09466138  0.77979293  1 -0.218347
  C  C91  1  0.60022065  0.60436201  0.12225009  1 0.099976
  C  C92  1  0.78861744  0.84574141  0.14995848  1 -0.10416
  C  C93  1  0.67898460  0.59466138  0.27979293  1 -0.218347
  C  C94  1  0.89977935  0.39563799  0.62225009  1 0.099976
  C  C95  1  0.71138256  0.15425859  0.64995848  1 -0.10416
  C  C96  1  0.82101540  0.40533862  0.77979293  1 -0.218347
  C  C97  1  0.39977935  0.89563799  0.12225009  1 0.099976
  C  C98  1  0.21138256  0.65425859  0.14995848  1 -0.10416
  C  C99  1  0.32101540  0.90533862  0.27979293  1 -0.218347
  C  C100  1  0.15943796  0.25000000  0.73621949  1 0.146969
  C  C101  1  0.65943796  0.75000000  0.23621949  1 0.146969
  C  C102  1  0.84056204  0.25000000  0.73621949  1 0.146969
  C  C103  1  0.34056204  0.75000000  0.23621949  1 0.146969
  C  C104  1  0.84056204  0.75000000  0.26378051  1 0.146969
  C  C105  1  0.34056204  0.25000000  0.76378051  1 0.146969
  C  C106  1  0.15943796  0.75000000  0.26378051  1 0.146969
  C  C107  1  0.65943796  0.25000000  0.76378051  1 0.146969
  Br  Br108  1  -0.00000000  0.75000000  0.63551398  1 -0.65035
  Br  Br109  1  0.50000000  0.25000000  0.13551398  1 -0.65035
  Br  Br110  1  -0.00000000  0.25000000  0.36448602  1 -0.65035
  Br  Br111  1  0.50000000  0.75000000  0.86448602  1 -0.65035
  N  N112  1  0.06494408  0.65847940  0.43994189  1 -0.165302
  N  N113  1  0.56494408  0.15847940  0.93994189  1 -0.165302
  N  N114  1  0.93505592  0.84152060  0.43994189  1 -0.165302
  N  N115  1  0.43505592  0.34152060  0.93994189  1 -0.165302
  N  N116  1  0.93505592  0.15847940  0.56005811  1 -0.165302
  N  N117  1  0.43505592  0.65847940  0.06005811  1 -0.165302
  N  N118  1  0.06494408  0.34152060  0.56005811  1 -0.165302
  N  N119  1  0.56494408  0.84152060  0.06005811  1 -0.165302
  N  N120  1  0.93505592  0.34152060  0.56005811  1 -0.165269
  N  N121  1  0.43505592  0.84152060  0.06005811  1 -0.165269
  N  N122  1  0.06494408  0.15847940  0.56005811  1 -0.165269
  N  N123  1  0.56494408  0.65847940  0.06005811  1 -0.165269
  N  N124  1  0.06494408  0.84152060  0.43994189  1 -0.165269
  N  N125  1  0.56494408  0.34152060  0.93994189  1 -0.165269
  N  N126  1  0.93505592  0.65847940  0.43994189  1 -0.165269
  N  N127  1  0.43505592  0.15847940  0.93994189  1 -0.165269
  N  N128  1  0.12303964  0.25000000  0.66399365  1 0.018884
  N  N129  1  0.62303964  0.75000000  0.16399365  1 0.018884
  N  N130  1  0.87696036  0.25000000  0.66399365  1 0.018884
  N  N131  1  0.37696036  0.75000000  0.16399365  1 0.018884
  N  N132  1  0.87696036  0.75000000  0.33600635  1 0.018884
  N  N133  1  0.37696036  0.25000000  0.83600635  1 0.018884
  N  N134  1  0.12303964  0.75000000  0.33600635  1 0.018884
  N  N135  1  0.62303964  0.25000000  0.83600635  1 0.018884
