# generated using pymatgen
data_ZnH3C5N4
_symmetry_space_group_name_H-M   'P 1'
_cell_length_a   10.11319100
_cell_length_b   11.41943441
_cell_length_c   11.42176252
_cell_angle_alpha   78.65219534
_cell_angle_beta   63.69320630
_cell_angle_gamma   63.69231209
_symmetry_Int_Tables_number   1
_chemical_formula_structural   ZnH3C5N4
_chemical_formula_sum   'Zn4 H12 C20 N16'
_cell_volume   1059.98341217
_cell_formula_units_Z   4
loop_
 _symmetry_equiv_pos_site_id
 _symmetry_equiv_pos_as_xyz
  1  'x, y, z'
loop_
 _atom_site_type_symbol
 _atom_site_label
 _atom_site_symmetry_multiplicity
 _atom_site_fract_x
 _atom_site_fract_y
 _atom_site_fract_z
 _atom_site_occupancy
 _atom_site_charge
  Zn  Zn0  1  0.26718337  0.45106957  0.85669271  1 0.411812
  Zn  Zn1  1  0.57578976  0.54877261  0.14016932  1 0.408346
  Zn  Zn2  1  0.87942305  0.85743166  0.54870181  1 0.413343
  Zn  Zn3  1  0.28690169  0.14019825  0.45139153  1 0.406567
  H  H4  1  -0.03253858  0.43422499  0.08973720  1 0.069408
  H  H5  1  0.62875809  0.76630861  0.69418979  1 0.058515
  H  H6  1  0.11918381  0.62780490  0.62500311  1 0.083414
  H  H7  1  0.48787200  0.56740470  0.90957398  1 0.068674
  H  H8  1  0.09245691  0.23028612  0.30517994  1 0.057617
  H  H9  1  0.37366275  0.37111097  0.37324922  1 0.082802
  H  H10  1  0.94685350  0.08910168  0.56650021  1 0.070209
  H  H11  1  0.67957811  0.69665943  0.22887632  1 0.057328
  H  H12  1  0.25978617  0.62501106  0.37116753  1 0.082427
  H  H13  1  0.60509025  0.90859998  0.43395649  1 0.069528
  H  H14  1  0.60909787  0.30641335  0.76478798  1 0.057629
  H  H15  1  0.25735687  0.37402008  0.62667437  1 0.083661
  C  C16  1  0.93395877  0.48520846  0.00957768  1 0.154405
  C  C17  1  0.80055185  0.58525082  0.88690351  1 0.27065
  C  C18  1  0.72220325  0.70721636  0.73082303  1 0.209012
  C  C19  1  0.00157785  0.62770310  0.68942048  1 -0.045262
  C  C20  1  0.96041902  0.57220473  0.81460817  1 0.068814
  C  C21  1  0.42767693  0.51457922  0.98935024  1 0.158052
  C  C22  1  0.27496514  0.41159599  0.11144247  1 0.272996
  C  C23  1  0.16342558  0.28942357  0.26792699  1 0.209961
  C  C24  1  0.32091746  0.37019780  0.30887232  1 -0.043653
  C  C25  1  0.34886917  0.42568371  0.18370238  1 0.067911
  C  C26  1  0.06054539  0.00912531  0.51517534  1 0.153076
  C  C27  1  0.31646020  0.88675398  0.41412595  1 0.274639
  C  C28  1  0.55015309  0.73224056  0.28968712  1 0.209172
  C  C29  1  0.31298844  0.68967912  0.37056387  1 -0.043292
  C  C30  1  0.22897275  0.81447235  0.42709171  1 0.066201
  C  C31  1  0.58608381  0.98883121  0.48574575  1 0.154823
  C  C32  1  0.61812095  0.11184858  0.58637238  1 0.274481
  C  C33  1  0.57454900  0.26898588  0.70664051  1 0.20877
  C  C34  1  0.37470101  0.30948160  0.62752543  1 -0.04512
  C  C35  1  0.47175070  0.18404864  0.57247021  1 0.066219
  N  N36  1  0.04315355  0.50805433  0.89314547  1 -0.30534
  N  N37  1  0.78630705  0.53070616  0.00769071  1 -0.339779
  N  N38  1  0.67760331  0.64863076  0.84526118  1 -0.356486
  N  N39  1  0.87121067  0.70425462  0.65343836  1 -0.279049
  N  N40  1  0.44399128  0.49167739  0.10550598  1 -0.306016
  N  N41  1  0.32557305  0.46723645  0.99095247  1 -0.342177
  N  N42  1  0.17472977  0.34727575  0.15319472  1 -0.35759
  N  N43  1  0.23188947  0.29301033  0.34524908  1 -0.277296
  N  N44  1  0.06763331  0.89302880  0.49165478  1 -0.304265
  N  N45  1  0.21002846  0.00711195  0.46970393  1 -0.339478
  N  N46  1  0.48089898  0.84567046  0.34982569  1 -0.358087
  N  N47  1  0.47878720  0.65467056  0.29263401  1 -0.276987
  N  N48  1  0.45390578  0.10504626  0.50816508  1 -0.303817
  N  N49  1  0.68731404  0.99098591  0.53197654  1 -0.341871
  N  N50  1  0.67753416  0.15403077  0.64934901  1 -0.357809
  N  N51  1  0.42850193  0.34623453  0.70359494  1 -0.27709
