# generated using pymatgen
data_ZnH8C19(NO3)2
_symmetry_space_group_name_H-M   'P 1'
_cell_length_a   4.95009929
_cell_length_b   19.01209328
_cell_length_c   25.71241139
_cell_angle_alpha   90.00000003
_cell_angle_beta   90.00000006
_cell_angle_gamma   94.21484968
_symmetry_Int_Tables_number   1
_chemical_formula_structural   ZnH8C19(NO3)2
_chemical_formula_sum   'Zn4 H32 C76 N8 O24'
_cell_volume   2413.29546730
_cell_formula_units_Z   4
loop_
 _symmetry_equiv_pos_site_id
 _symmetry_equiv_pos_as_xyz
  1  'x, y, z'
loop_
 _atom_site_type_symbol
 _atom_site_label
 _atom_site_symmetry_multiplicity
 _atom_site_fract_x
 _atom_site_fract_y
 _atom_site_fract_z
 _atom_site_occupancy
 _atom_site_charge
  Zn  Zn0  1  0.11337555  0.56340499  0.53280186  1 0.898401
  Zn  Zn1  1  0.88662445  0.93659501  0.03280186  1 0.898402
  Zn  Zn2  1  0.88662445  0.43659501  0.46719814  1 0.898401
  Zn  Zn3  1  0.11337555  0.06340500  0.96719814  1 0.8984
  H  H4  1  0.42211559  0.91930079  0.11033262  1 0.104663
  H  H5  1  0.35217994  0.85321147  0.19436974  1 0.143752
  H  H6  1  0.03965148  0.73679146  0.15414951  1 0.147799
  H  H7  1  0.08630970  0.80823265  0.07215968  1 0.106873
  H  H8  1  0.04177921  0.60480916  0.25129802  1 0.118811
  H  H9  1  0.97086304  0.53383041  0.33401432  1 0.122658
  H  H10  1  0.10189889  0.70338955  0.43484332  1 0.128273
  H  H11  1  0.16221479  0.77494278  0.35347151  1 0.118937
  H  H12  1  0.57788440  0.58069921  0.61033262  1 0.104664
  H  H13  1  0.64782006  0.64678853  0.69436974  1 0.143752
  H  H14  1  0.96034852  0.76320854  0.65414951  1 0.147799
  H  H15  1  0.91369030  0.69176735  0.57215968  1 0.106872
  H  H16  1  0.95822079  0.89519084  0.75129802  1 0.118811
  H  H17  1  0.02913696  0.96616959  0.83401432  1 0.122658
  H  H18  1  0.89810111  0.79661045  0.93484332  1 0.128273
  H  H19  1  0.83778521  0.72505722  0.85347151  1 0.118937
  H  H20  1  0.57788441  0.08069921  0.88966738  1 0.104663
  H  H21  1  0.64782006  0.14678853  0.80563026  1 0.143752
  H  H22  1  0.96034852  0.26320854  0.84585049  1 0.147799
  H  H23  1  0.91369030  0.19176735  0.92784032  1 0.106873
  H  H24  1  0.95822079  0.39519084  0.74870198  1 0.118811
  H  H25  1  0.02913696  0.46616959  0.66598568  1 0.122658
  H  H26  1  0.89810111  0.29661045  0.56515668  1 0.128273
  H  H27  1  0.83778521  0.22505722  0.64652849  1 0.118937
  H  H28  1  0.42211560  0.41930079  0.38966738  1 0.104664
  H  H29  1  0.35217994  0.35321147  0.30563026  1 0.143752
  H  H30  1  0.03965148  0.23679146  0.34585049  1 0.147799
  H  H31  1  0.08630970  0.30823265  0.42784032  1 0.106873
  H  H32  1  0.04177921  0.10480916  0.24870198  1 0.118812
  H  H33  1  0.97086304  0.03383041  0.16598568  1 0.122658
  H  H34  1  0.10189889  0.20338955  0.06515668  1 0.128273
  H  H35  1  0.16221479  0.27494278  0.14652849  1 0.118937
  C  C36  1  0.55426473  0.87839777  0.12149925  1 0.110089
  C  C37  1  0.51426021  0.84118252  0.16797736  1 -0.190141
  C  C38  1  0.69184471  0.78993848  0.17990538  1 0.227611
  C  C39  1  0.89860206  0.77644717  0.14557408  1 -0.192923
  C  C40  1  0.92871994  0.81670812  0.10047771  1 0.109551
  C  C41  1  0.44342558  0.69923155  0.23039255  1 0.453108
  C  C42  1  0.39972624  0.66216360  0.28034534  1 -0.09034
  C  C43  1  0.59118241  0.67281884  0.32075039  1 0.032113
  C  C44  1  0.81887191  0.72208248  0.31542514  1 -0.088169
  C  C45  1  0.85838813  0.76436244  0.26722897  1 0.452676
  C  C46  1  0.17908952  0.61252463  0.28428172  1 -0.067351
  C  C47  1  0.14194599  0.57276294  0.32975149  1 -0.098557
  C  C48  1  0.31873585  0.58486265  0.37136360  1 -0.048976
  C  C49  1  0.55036152  0.63310428  0.36859286  1 0.02675
  C  C50  1  0.74442775  0.64321393  0.40898329  1 -0.04137
  C  C51  1  0.95824823  0.69496882  0.40299656  1 -0.084394
  C  C52  1  0.99451522  0.73481276  0.35722564  1 -0.071723
  C  C53  1  0.24572584  0.54750071  0.42059790  1 0.601841
  C  C54  1  0.74766341  0.59753251  0.45830414  1 0.619018
  C  C55  1  0.44573527  0.62160223  0.62149925  1 0.110089
  C  C56  1  0.48573980  0.65881749  0.66797736  1 -0.190141
  C  C57  1  0.30815529  0.71006152  0.67990538  1 0.227611
  C  C58  1  0.10139794  0.72355283  0.64557408  1 -0.192923
  C  C59  1  0.07128006  0.68329188  0.60047771  1 0.109551
  C  C60  1  0.55657442  0.80076845  0.73039255  1 0.453108
  C  C61  1  0.60027376  0.83783640  0.78034534  1 -0.09034
  C  C62  1  0.40881759  0.82718116  0.82075039  1 0.032113
  C  C63  1  0.18112810  0.77791752  0.81542514  1 -0.088169
  C  C64  1  0.14161187  0.73563756  0.76722897  1 0.452676
  C  C65  1  0.82091047  0.88747537  0.78428172  1 -0.067351
  C  C66  1  0.85805401  0.92723706  0.82975148  1 -0.098557
  C  C67  1  0.68126414  0.91513735  0.87136360  1 -0.048976
  C  C68  1  0.44963848  0.86689572  0.86859286  1 0.02675
  C  C69  1  0.25557226  0.85678607  0.90898329  1 -0.04137
  C  C70  1  0.04175177  0.80503118  0.90299656  1 -0.084394
  C  C71  1  0.00548478  0.76518724  0.85722564  1 -0.071723
  C  C72  1  0.75427416  0.95249929  0.92059790  1 0.601841
  C  C73  1  0.25233659  0.90246749  0.95830414  1 0.619017
  C  C74  1  0.44573527  0.12160223  0.87850075  1 0.110089
  C  C75  1  0.48573979  0.15881748  0.83202264  1 -0.190141
  C  C76  1  0.30815529  0.21006152  0.82009462  1 0.227611
  C  C77  1  0.10139794  0.22355283  0.85442592  1 -0.192923
  C  C78  1  0.07128006  0.18329188  0.89952228  1 0.109551
  C  C79  1  0.55657442  0.30076845  0.76960745  1 0.453108
  C  C80  1  0.60027376  0.33783640  0.71965466  1 -0.09034
  C  C81  1  0.40881759  0.32718116  0.67924961  1 0.032113
  C  C82  1  0.18112809  0.27791752  0.68457486  1 -0.088169
  C  C83  1  0.14161187  0.23563756  0.73277103  1 0.452676
  C  C84  1  0.82091048  0.38747537  0.71571828  1 -0.067351
  C  C85  1  0.85805401  0.42723706  0.67024851  1 -0.098557
  C  C86  1  0.68126415  0.41513735  0.62863640  1 -0.048976
  C  C87  1  0.44963848  0.36689572  0.63140714  1 0.02675
  C  C88  1  0.25557226  0.35678607  0.59101671  1 -0.04137
  C  C89  1  0.04175177  0.30503118  0.59700344  1 -0.084394
  C  C90  1  0.00548478  0.26518724  0.64277436  1 -0.071723
  C  C91  1  0.75427417  0.45249929  0.57940210  1 0.601841
  C  C92  1  0.25233659  0.40246749  0.54169586  1 0.619018
  C  C93  1  0.55426473  0.37839777  0.37850075  1 0.110089
  C  C94  1  0.51426020  0.34118251  0.33202264  1 -0.190141
  C  C95  1  0.69184471  0.28993848  0.32009462  1 0.227611
  C  C96  1  0.89860206  0.27644717  0.35442592  1 -0.192923
  C  C97  1  0.92871994  0.31670812  0.39952228  1 0.109551
  C  C98  1  0.44342558  0.19923155  0.26960745  1 0.453108
  C  C99  1  0.39972624  0.16216360  0.21965466  1 -0.09034
  C  C100  1  0.59118241  0.17281884  0.17924961  1 0.032113
  C  C101  1  0.81887191  0.22208248  0.18457486  1 -0.088169
  C  C102  1  0.85838813  0.26436244  0.23277103  1 0.452676
  C  C103  1  0.17908953  0.11252463  0.21571828  1 -0.067351
  C  C104  1  0.14194599  0.07276294  0.17024852  1 -0.098557
  C  C105  1  0.31873586  0.08486265  0.12863640  1 -0.048976
  C  C106  1  0.55036152  0.13310428  0.13140714  1 0.02675
  C  C107  1  0.74442774  0.14321393  0.09101671  1 -0.04137
  C  C108  1  0.95824823  0.19496882  0.09700344  1 -0.084394
  C  C109  1  0.99451522  0.23481276  0.14277436  1 -0.071723
  C  C110  1  0.24572584  0.04750071  0.07940210  1 0.601841
  C  C111  1  0.74766341  0.09753251  0.04169586  1 0.619018
  N  N112  1  0.75846174  0.86673171  0.08874347  1 -0.230178
  N  N113  1  0.66135847  0.75110103  0.22794066  1 -0.212085
  N  N114  1  0.24153826  0.63326829  0.58874347  1 -0.230178
  N  N115  1  0.33864153  0.74889897  0.72794066  1 -0.212086
  N  N116  1  0.24153826  0.13326829  0.91125653  1 -0.230178
  N  N117  1  0.33864153  0.24889897  0.77205934  1 -0.212085
  N  N118  1  0.75846174  0.36673171  0.41125653  1 -0.230178
  N  N119  1  0.66135847  0.25110103  0.27205934  1 -0.212085
  O  O120  1  0.25334507  0.58634706  0.46077690  1 -0.526288
  O  O121  1  0.16298470  0.48315211  0.41715940  1 -0.538389
  O  O122  1  0.71587132  0.53079541  0.45204148  1 -0.589451
  O  O123  1  0.80956543  0.62885820  0.50062262  1 -0.562413
  O  O124  1  0.30667539  0.68450463  0.19133272  1 -0.440873
  O  O125  1  0.04617958  0.80989836  0.26092476  1 -0.449301
  O  O126  1  0.74665492  0.91365293  0.96077690  1 -0.526288
  O  O127  1  0.83701531  0.01684789  0.91715940  1 -0.538389
  O  O128  1  0.28412868  0.96920459  0.95204148  1 -0.58945
  O  O129  1  0.19043457  0.87114180  0.00062262  1 -0.562413
  O  O130  1  0.69332461  0.81549537  0.69133272  1 -0.440873
  O  O131  1  0.95382042  0.69010164  0.76092476  1 -0.449301
  O  O132  1  0.74665493  0.41365294  0.53922310  1 -0.526288
  O  O133  1  0.83701530  0.51684789  0.58284060  1 -0.538389
  O  O134  1  0.28412868  0.46920459  0.54795852  1 -0.589451
  O  O135  1  0.19043457  0.37114180  0.49937738  1 -0.562413
  O  O136  1  0.69332461  0.31549537  0.80866728  1 -0.440873
  O  O137  1  0.95382042  0.19010164  0.73907524  1 -0.449301
  O  O138  1  0.25334507  0.08634707  0.03922310  1 -0.526287
  O  O139  1  0.16298470  0.98315211  0.08284060  1 -0.538389
  O  O140  1  0.71587132  0.03079541  0.04795852  1 -0.58945
  O  O141  1  0.80956543  0.12885820  0.99937738  1 -0.562413
  O  O142  1  0.30667539  0.18450463  0.30866728  1 -0.440873
  O  O143  1  0.04617958  0.30989836  0.23907524  1 -0.449301
