# generated using pymatgen
data_CuH7C15O4
_symmetry_space_group_name_H-M   'P 1'
_cell_length_a   18.64972861
_cell_length_b   18.64909915
_cell_length_c   28.09673671
_cell_angle_alpha   70.61656183
_cell_angle_beta   70.62807302
_cell_angle_gamma   60.00250159
_symmetry_Int_Tables_number   1
_chemical_formula_structural   CuH7C15O4
_chemical_formula_sum   'Cu12 H84 C180 O48'
_cell_volume   7817.29852495
_cell_formula_units_Z   12
loop_
 _symmetry_equiv_pos_site_id
 _symmetry_equiv_pos_as_xyz
  1  'x, y, z'
loop_
 _atom_site_type_symbol
 _atom_site_label
 _atom_site_symmetry_multiplicity
 _atom_site_fract_x
 _atom_site_fract_y
 _atom_site_fract_z
 _atom_site_occupancy
 _atom_site_charge
  Cu  Cu0  1  0.22422252  0.78114888  0.78874188  1 0.830376
  Cu  Cu1  1  0.78115220  0.20590081  0.78871739  1 0.832221
  Cu  Cu2  1  0.20597171  0.22428935  0.78865095  1 0.80731
  Cu  Cu3  1  0.27571401  0.29404461  0.71133470  1 0.805337
  Cu  Cu4  1  0.71886553  0.27575820  0.71128557  1 0.83089
  Cu  Cu5  1  0.29407249  0.71887450  0.71129802  1 0.833375
  Cu  Cu6  1  0.77567958  0.21894283  0.21138205  1 0.829196
  Cu  Cu7  1  0.21893078  0.79401588  0.21138651  1 0.822472
  Cu  Cu8  1  0.79406207  0.77573891  0.21131694  1 0.830454
  Cu  Cu9  1  0.72430388  0.70597816  0.28864169  1 0.830863
  Cu  Cu10  1  0.28112009  0.72425412  0.28869626  1 0.804273
  Cu  Cu11  1  0.70595820  0.28110310  0.28866259  1 0.831975
  H  H12  1  0.08784863  0.40469896  0.88473460  1 0.12675
  H  H13  1  0.09996025  0.62841474  0.88759174  1 0.126736
  H  H14  1  0.21546951  0.52338293  0.75097362  1 0.134767
  H  H15  1  0.94099844  0.56185000  0.88086099  1 0.102107
  H  H16  1  0.20538705  0.47734560  0.93507925  1 0.101702
  H  H17  1  0.79133350  0.58737882  0.90337751  1 0.09766
  H  H18  1  0.28128847  0.43388809  0.00431263  1 0.094298
  H  H19  1  0.40470396  0.62271088  0.88473531  1 0.126168
  H  H20  1  0.62841829  0.38403048  0.88759370  1 0.127285
  H  H21  1  0.52337789  0.51017933  0.75096196  1 0.135265
  H  H22  1  0.56184717  0.61627841  0.88085944  1 0.102477
  H  H23  1  0.47735233  0.38217621  0.93507222  1 0.101982
  H  H24  1  0.58736788  0.71789960  0.90338807  1 0.097422
  H  H25  1  0.43388297  0.28051674  0.00430232  1 0.092811
  H  H26  1  0.62272998  0.08784607  0.88474716  1 0.126534
  H  H27  1  0.38404860  0.09996222  0.88758176  1 0.12732
  H  H28  1  0.51015987  0.21548465  0.75096266  1 0.13461
  H  H29  1  0.61627022  0.94102584  0.88085953  1 0.1028
  H  H30  1  0.38217302  0.20541431  0.93506753  1 0.101782
  H  H31  1  0.71788610  0.79135721  0.90339216  1 0.097269
  H  H32  1  0.28052222  0.28129679  0.00429679  1 0.093712
  H  H33  1  0.41214814  0.87727819  0.61526098  1 0.126429
  H  H34  1  0.40004392  0.11595252  0.61241269  1 0.127358
  H  H35  1  0.28452665  0.98982993  0.74902662  1 0.134718
  H  H36  1  0.55900402  0.88371095  0.61913742  1 0.1028
  H  H37  1  0.29461356  0.11781346  0.56492144  1 0.101862
  H  H38  1  0.70866390  0.78208841  0.59662237  1 0.097327
  H  H39  1  0.21871159  0.21947998  0.49568652  1 0.093628
  H  H40  1  0.09529386  0.41215360  0.61526144  1 0.126661
  H  H41  1  0.87157615  0.40004523  0.61239786  1 0.126708
  H  H42  1  0.97662245  0.28452261  0.74903479  1 0.134863
  H  H43  1  0.93815295  0.55898120  0.61914169  1 0.102063
  H  H44  1  0.02265527  0.29459153  0.56492986  1 0.101577
  H  H45  1  0.91263001  0.70865042  0.59661126  1 0.097581
  H  H46  1  0.06610881  0.21870367  0.49569910  1 0.094333
  H  H47  1  0.87727791  0.09531081  0.61524874  1 0.126037
  H  H48  1  0.11594676  0.87160133  0.61241197  1 0.127077
  H  H49  1  0.98983427  0.97660932  0.74903635  1 0.135153
  H  H50  1  0.88372591  0.93815624  0.61914061  1 0.102467
  H  H51  1  0.11782518  0.02265247  0.56492982  1 0.101928
  H  H52  1  0.78210722  0.91263365  0.59660769  1 0.097441
  H  H53  1  0.21948191  0.06611361  0.49570260  1 0.092757
  H  H54  1  0.91215498  0.59531482  0.11526134  1 0.126335
  H  H55  1  0.90003576  0.37158846  0.11241606  1 0.126677
  H  H56  1  0.78453096  0.47662301  0.24902429  1 0.134418
  H  H57  1  0.05900038  0.43814888  0.11914065  1 0.102147
  H  H58  1  0.79460965  0.52265360  0.06492284  1 0.101797
  H  H59  1  0.20866307  0.41262417  0.09662346  1 0.097815
  H  H60  1  0.71870780  0.56611334  0.99568962  1 0.094318
  H  H61  1  0.59534651  0.37723821  0.11524995  1 0.125385
  H  H62  1  0.37158887  0.61596033  0.11241769  1 0.127125
  H  H63  1  0.47659079  0.48983684  0.24901124  1 0.135232
  H  H64  1  0.43815557  0.38372970  0.11913909  1 0.102855
  H  H65  1  0.52263616  0.61782037  0.06493152  1 0.102496
  H  H66  1  0.41262982  0.28210027  0.09661347  1 0.097599
  H  H67  1  0.56611377  0.71948089  0.99570026  1 0.092999
  H  H68  1  0.37728891  0.91213487  0.11528170  1 0.126432
  H  H69  1  0.61601290  0.90005049  0.11239180  1 0.127028
  H  H70  1  0.48982701  0.78453893  0.24901546  1 0.134586
  H  H71  1  0.38373309  0.05896127  0.11913672  1 0.103074
  H  H72  1  0.61781188  0.79459895  0.06493338  1 0.101982
  H  H73  1  0.28211580  0.20863865  0.09660771  1 0.097542
  H  H74  1  0.71947615  0.71870234  0.99570397  1 0.093712
  H  H75  1  0.58784830  0.12271723  0.38473494  1 0.12645
  H  H76  1  0.59995677  0.88403049  0.38759010  1 0.126945
  H  H77  1  0.71547021  0.01017159  0.25097563  1 0.134268
  H  H78  1  0.44099577  0.11629117  0.38086117  1 0.102881
  H  H79  1  0.70538892  0.88218671  0.43507704  1 0.101874
  H  H80  1  0.29133685  0.21791313  0.40337629  1 0.097562
  H  H81  1  0.78129067  0.78051985  0.50431116  1 0.093659
  H  H82  1  0.90464750  0.58783293  0.38475416  1 0.126194
  H  H83  1  0.12839550  0.59996754  0.38758171  1 0.12689
  H  H84  1  0.02340295  0.71545526  0.25098394  1 0.134645
  H  H85  1  0.06184391  0.44102911  0.38086265  1 0.102324
  H  H86  1  0.97735796  0.70539391  0.43506771  1 0.101913
  H  H87  1  0.08737042  0.29135011  0.40338781  1 0.097776
  H  H88  1  0.93389395  0.78129412  0.50429855  1 0.094449
  H  H89  1  0.12270722  0.90471413  0.38472503  1 0.126303
  H  H90  1  0.88399294  0.12844510  0.38761122  1 0.126832
  H  H91  1  0.01018429  0.02338004  0.25098201  1 0.134824
  H  H92  1  0.11627366  0.06183217  0.38085891  1 0.102912
  H  H93  1  0.88218501  0.97734680  0.43506684  1 0.102286
  H  H94  1  0.21789316  0.08736439  0.40339045  1 0.097568
  H  H95  1  0.78051647  0.93388322  0.50429600  1 0.09294
  C  C96  1  0.18099266  0.38722173  0.78923066  1 0.578409
  C  C97  1  0.08670920  0.51693233  0.89256226  1 0.069597
  C  C98  1  0.19359843  0.64716294  0.79177040  1 0.579725
  C  C99  1  0.10663533  0.45576851  0.86584707  1 -0.125765
  C  C100  1  0.08615194  0.48582090  0.98653879  1 0.034037
  C  C101  1  0.95632578  0.52488274  0.96000630  1 0.036039
  C  C102  1  0.11345477  0.58066876  0.86755935  1 -0.127516
  C  C103  1  0.15961223  0.58295682  0.81670311  1 -0.022787
  C  C104  1  0.04181232  0.51022429  0.94733443  1 -0.025307
  C  C105  1  0.17885519  0.52197537  0.79023126  1 -0.0949
  C  C106  1  0.90932564  0.55220686  0.92109263  1 -0.131092
  C  C107  1  0.15297829  0.45780321  0.81513859  1 -0.023184
  C  C108  1  0.17286150  0.46975056  0.97524514  1 -0.129882
  C  C109  1  0.82611904  0.56650228  0.93367313  1 -0.083474
  C  C110  1  0.21527918  0.44528070  0.01385100  1 -0.079724
  C  C111  1  0.38723433  0.64254862  0.78923305  1 0.582504
  C  C112  1  0.51696072  0.50375489  0.89257135  1 0.072577
  C  C113  1  0.64717690  0.36745554  0.79175891  1 0.579637
  C  C114  1  0.45579463  0.57172533  0.86584954  1 -0.125089
  C  C115  1  0.48583175  0.44147972  0.98653249  1 0.032596
  C  C116  1  0.52488682  0.55877781  0.96000113  1 0.036619
  C  C117  1  0.58068035  0.43829844  0.86757273  1 -0.129269
  C  C118  1  0.58296187  0.44071458  0.81671441  1 -0.021953
  C  C119  1  0.51023707  0.50060691  0.94733415  1 -0.025704
  C  C120  1  0.52199043  0.50892908  0.79022602  1 -0.096644
  C  C121  1  0.55219891  0.61736621  0.92109295  1 -0.130289
  C  C122  1  0.45783053  0.57407126  0.81512825  1 -0.02481
  C  C123  1  0.46976040  0.38213353  0.97523923  1 -0.130623
  C  C124  1  0.56649614  0.67369660  0.93368139  1 -0.085742
  C  C125  1  0.44528306  0.32559277  0.01384277  1 -0.076548
  C  C126  1  0.64257578  0.18099149  0.78922735  1 0.583107
  C  C127  1  0.50375910  0.08673229  0.89256541  1 0.071041
  C  C128  1  0.36747604  0.19359703  0.79176072  1 0.574759
  C  C129  1  0.57173017  0.10663537  0.86585692  1 -0.125604
  C  C130  1  0.44148559  0.08615828  0.98653175  1 0.033241
  C  C131  1  0.55877068  0.95632881  0.96000420  1 0.035948
  C  C132  1  0.43830214  0.11346385  0.86755592  1 -0.13015
  C  C133  1  0.44069986  0.15962293  0.81670443  1 -0.017479
  C  C134  1  0.50062168  0.04183241  0.94733389  1 -0.024671
  C  C135  1  0.50889183  0.17886826  0.79022233  1 -0.096134
  C  C136  1  0.61735286  0.90934743  0.92109433  1 -0.132202
  C  C137  1  0.57405048  0.15297380  0.81513132  1 -0.026574
  C  C138  1  0.38213904  0.17287579  0.97523478  1 -0.129363
  C  C139  1  0.67368285  0.82613199  0.93368374  1 -0.083882
  C  C140  1  0.32560477  0.21528367  0.01383690  1 -0.078149
  C  C141  1  0.31900016  0.85745055  0.71077740  1 0.583278
  C  C142  1  0.41328860  0.99623978  0.60743805  1 0.071109
  C  C143  1  0.30640669  0.13252481  0.70823168  1 0.574741
  C  C144  1  0.39336251  0.92827159  0.63415317  1 -0.125548
  C  C145  1  0.41385079  0.05850955  0.51346311  1 0.033469
  C  C146  1  0.54368106  0.94122221  0.53999445  1 0.036067
  C  C147  1  0.38654463  0.06170133  0.63244335  1 -0.130152
  C  C148  1  0.34038255  0.05930107  0.68328848  1 -0.017418
  C  C149  1  0.45818775  0.99937060  0.55266576  1 -0.024854
  C  C150  1  0.32114061  0.99109625  0.70976965  1 -0.096502
  C  C151  1  0.59067772  0.88262895  0.57890711  1 -0.132351
  C  C152  1  0.34702499  0.92593896  0.68487018  1 -0.026327
  C  C153  1  0.32714041  0.11785498  0.52475606  1 -0.129563
  C  C154  1  0.67388320  0.82630060  0.56632550  1 -0.083936
  C  C155  1  0.28471950  0.17440135  0.48615023  1 -0.077959
  C  C156  1  0.11277363  0.31900558  0.71077204  1 0.578578
  C  C157  1  0.98305860  0.41327740  0.60743552  1 0.069467
  C  C158  1  0.85282769  0.30638600  0.70824694  1 0.579588
  C  C159  1  0.04422369  0.39336020  0.63415398  1 -0.12559
  C  C160  1  0.01417709  0.41383721  0.51346554  1 0.033659
  C  C161  1  0.97511763  0.54366543  0.53999653  1 0.035746
  C  C162  1  0.91932394  0.38654778  0.63243004  1 -0.127264
  C  C163  1  0.91704717  0.34039302  0.68329358  1 -0.022939
  C  C164  1  0.98976789  0.45817450  0.55266610  1 -0.025129
  C  C165  1  0.97802860  0.32114041  0.70977529  1 -0.095054
  C  C166  1  0.94779832  0.59065497  0.57890708  1 -0.13099
  C  C167  1  0.04219117  0.34701622  0.68486880  1 -0.023263
  C  C168  1  0.03024889  0.32712447  0.52476250  1 -0.129397
  C  C169  1  0.93350192  0.67387061  0.56631898  1 -0.0834
  C  C170  1  0.05471537  0.28471742  0.48615780  1 -0.079943
  C  C171  1  0.85743891  0.11278150  0.71077559  1 0.58162
  C  C172  1  0.99622018  0.98307356  0.60742778  1 0.072535
  C  C173  1  0.13250576  0.85285283  0.70824905  1 0.579655
  C  C174  1  0.92825849  0.04422888  0.63413548  1 -0.12462
  C  C175  1  0.05851978  0.01416720  0.51346842  1 0.032558
  C  C176  1  0.94122120  0.97511460  0.53999769  1 0.03652
  C  C177  1  0.06168251  0.91933715  0.63243968  1 -0.129337
  C  C178  1  0.05929225  0.91702930  0.68329459  1 -0.02172
  C  C179  1  0.99937913  0.98978426  0.55266443  1 -0.025752
  C  C180  1  0.99108951  0.97799255  0.70977119  1 -0.096615
  C  C181  1  0.88263710  0.94780369  0.57890564  1 -0.130186
  C  C182  1  0.92593425  0.04216675  0.68485768  1 -0.025022
  C  C183  1  0.11786622  0.03024111  0.52476243  1 -0.130685
  C  C184  1  0.82630551  0.93350771  0.56631583  1 -0.085807
  C  C185  1  0.17440331  0.05471733  0.48616038  1 -0.076466
  C  C186  1  0.81899593  0.61280805  0.21077983  1 0.582207
  C  C187  1  0.91328450  0.48305154  0.10744626  1 0.069443
  C  C188  1  0.80641161  0.35284034  0.20822481  1 0.579302
  C  C189  1  0.89335811  0.54423002  0.13416007  1 -0.124974
  C  C190  1  0.91385167  0.51417391  0.01345872  1 0.033836
  C  C191  1  0.04367996  0.47511137  0.03999144  1 0.035922
  C  C192  1  0.88654185  0.41932196  0.13244480  1 -0.127334
  C  C193  1  0.84038656  0.41703016  0.18329154  1 -0.022868
  C  C194  1  0.95818375  0.48978151  0.05266780  1 -0.025228
  C  C195  1  0.82113853  0.47799742  0.20977223  1 -0.09396
  C  C196  1  0.09067296  0.44779163  0.07890851  1 -0.131077
  C  C197  1  0.84700942  0.54216889  0.18487433  1 -0.02669
  C  C198  1  0.82713694  0.53024749  0.02475575  1 -0.129676
  C  C199  1  0.17387865  0.43349621  0.06632904  1 -0.083568
  C  C200  1  0.78471673  0.55471811  0.98615124  1 -0.079673
  C  C201  1  0.61280730  0.35741268  0.21076416  1 0.581825
  C  C202  1  0.48311104  0.49617691  0.10741666  1 0.07188
  C  C203  1  0.35289690  0.63241140  0.20817804  1 0.578005
  C  C204  1  0.54427299  0.42821157  0.13414086  1 -0.125205
  C  C205  1  0.51417639  0.55851822  0.01345129  1 0.032459
  C  C206  1  0.47511663  0.44121431  0.03998224  1 0.036466
  C  C207  1  0.41937115  0.56163992  0.13240870  1 -0.130008
  C  C208  1  0.41710821  0.55917268  0.18325792  1 -0.020982
  C  C209  1  0.48980079  0.49936242  0.05264694  1 -0.024828
  C  C210  1  0.47805629  0.49099774  0.20975847  1 -0.097042
  C  C211  1  0.44779992  0.38263533  0.07890585  1 -0.12994
  C  C212  1  0.54223145  0.42587048  0.18485963  1 -0.025226
  C  C213  1  0.53024109  0.61786072  0.02476175  1 -0.130232
  C  C214  1  0.43350158  0.32630288  0.06632265  1 -0.085856
  C  C215  1  0.55471742  0.67440358  0.98616106  1 -0.076644
  C  C216  1  0.35752826  0.81909377  0.21074468  1 0.581012
  C  C217  1  0.49627816  0.91329408  0.10742492  1 0.070351
  C  C218  1  0.63260331  0.80639132  0.20824257  1 0.578237
  C  C219  1  0.42831636  0.89338541  0.13413248  1 -0.125289
  C  C220  1  0.55851636  0.91384510  0.01345560  1 0.033615
  C  C221  1  0.44123113  0.04367822  0.03998471  1 0.036208
  C  C222  1  0.56175369  0.88655155  0.13242923  1 -0.130232
  C  C223  1  0.55934295  0.84039214  0.18328789  1 -0.021587
  C  C224  1  0.49940774  0.95818493  0.05265442  1 -0.024458
  C  C225  1  0.49115620  0.82115188  0.20975927  1 -0.095578
  C  C226  1  0.38265261  0.09065160  0.07890231  1 -0.13164
  C  C227  1  0.42603482  0.84704989  0.18483970  1 -0.024937
  C  C228  1  0.61785696  0.82712739  0.02476358  1 -0.129191
  C  C229  1  0.32632134  0.17386671  0.06631691  1 -0.084021
  C  C230  1  0.67439568  0.78471547  0.98616429  1 -0.078515
  C  C231  1  0.68099814  0.14254144  0.28922433  1 0.582343
  C  C232  1  0.58671281  0.00378803  0.39255047  1 0.0709
  C  C233  1  0.69360528  0.86744114  0.29175707  1 0.578457
  C  C234  1  0.60664543  0.07174604  0.36583403  1 -0.124953
  C  C235  1  0.58614878  0.94149113  0.48654122  1 0.033583
  C  C236  1  0.45631703  0.05877873  0.46001075  1 0.036246
  C  C237  1  0.61345394  0.93830368  0.36755755  1 -0.129516
  C  C238  1  0.65960964  0.94071386  0.31671086  1 -0.020639
  C  C239  1  0.54180993  0.00062658  0.44733188  1 -0.025186
  C  C240  1  0.67886006  0.00891513  0.29022749  1 -0.095662
  C  C241  1  0.40932321  0.11737164  0.42109355  1 -0.132322
  C  C242  1  0.65299262  0.07406264  0.31512230  1 -0.026591
  C  C243  1  0.67286030  0.88214653  0.47524309  1 -0.129528
  C  C244  1  0.32611782  0.17369948  0.43367170  1 -0.083971
  C  C245  1  0.71528326  0.82559720  0.51384750  1 -0.078327
  C  C246  1  0.88715900  0.68100934  0.28921652  1 0.581541
  C  C247  1  0.01689202  0.58670835  0.39258082  1 0.068876
  C  C248  1  0.14708634  0.69351001  0.29180176  1 0.579291
  C  C249  1  0.95572447  0.60662342  0.36586203  1 -0.125886
  C  C250  1  0.98581875  0.58615086  0.48654614  1 0.033983
  C  C251  1  0.02488131  0.45631683  0.46001611  1 0.035884
  C  C252  1  0.08062585  0.61342487  0.36758618  1 -0.1259
  C  C253  1  0.08288749  0.65955372  0.31673648  1 -0.02679
  C  C254  1  0.01018944  0.54181877  0.44734944  1 -0.024759
  C  C255  1  0.02193779  0.67883040  0.29024010  1 -0.092596
  C  C256  1  0.05220285  0.40934374  0.42109540  1 -0.130634
  C  C257  1  0.95776956  0.65296406  0.31514481  1 -0.026562
  C  C258  1  0.96975114  0.67286918  0.47523792  1 -0.129039
  C  C259  1  0.06649858  0.32613025  0.43367887  1 -0.083644
  C  C260  1  0.94528334  0.71528256  0.51383971  1 -0.080039
  C  C261  1  0.14244714  0.88740044  0.28923856  1 0.58028
  C  C262  1  0.00371814  0.01699821  0.39257489  1 0.071662
  C  C263  1  0.86744280  0.14719664  0.29175910  1 0.579614
  C  C264  1  0.07168177  0.95583809  0.36586734  1 -0.125915
  C  C265  1  0.94147247  0.98583190  0.48654794  1 0.032396
  C  C266  1  0.05877526  0.02488753  0.46001640  1 0.036554
  C  C267  1  0.93824557  0.08073251  0.36756753  1 -0.129858
  C  C268  1  0.94064662  0.08303711  0.31670846  1 -0.022044
  C  C269  1  0.00059291  0.01024572  0.44734917  1 -0.024698
  C  C270  1  0.00883896  0.02208569  0.29023792  1 -0.096623
  C  C271  1  0.11735627  0.05219806  0.42109520  1 -0.129885
  C  C272  1  0.07395381  0.95794464  0.31515608  1 -0.023814
  C  C273  1  0.88213373  0.96976033  0.47523748  1 -0.130203
  C  C274  1  0.17368977  0.06649693  0.43367992  1 -0.085967
  C  C275  1  0.82559329  0.94528506  0.51383497  1 -0.076755
  O  O276  1  0.17757521  0.69856485  0.81885664  1 -0.515649
  O  O277  1  0.22773524  0.39018116  0.74422341  1 -0.507207
  O  O278  1  0.23755003  0.64384188  0.74599780  1 -0.517578
  O  O279  1  0.15827305  0.32855808  0.81488987  1 -0.516493
  O  O280  1  0.69859502  0.30497444  0.81886040  1 -0.517327
  O  O281  1  0.39017930  0.63787956  0.74420557  1 -0.51302
  O  O282  1  0.64383266  0.37264378  0.74597816  1 -0.517083
  O  O283  1  0.32861059  0.69823685  0.81490150  1 -0.522557
  O  O284  1  0.30499057  0.17758778  0.81883229  1 -0.511677
  O  O285  1  0.63786676  0.22774586  0.74419911  1 -0.511947
  O  O286  1  0.37261484  0.23753869  0.74599344  1 -0.51112
  O  O287  1  0.69830308  0.15823684  0.81490717  1 -0.523206
  O  O288  1  0.32242062  0.19500363  0.68115902  1 -0.511325
  O  O289  1  0.27227776  0.86215438  0.75578641  1 -0.512068
  O  O290  1  0.26246428  0.12737956  0.75399806  1 -0.511395
  O  O291  1  0.34172094  0.80171874  0.68511493  1 -0.523363
  O  O292  1  0.80140258  0.32241113  0.68115198  1 -0.515727
  O  O293  1  0.10983747  0.27224649  0.75579090  1 -0.507462
  O  O294  1  0.85618488  0.26243493  0.75402632  1 -0.517277
  O  O295  1  0.17142233  0.34172432  0.68511579  1 -0.516422
  O  O296  1  0.19499881  0.80143148  0.68117162  1 -0.517409
  O  O297  1  0.86216621  0.10977776  0.75580202  1 -0.51245
  O  O298  1  0.12733906  0.85617405  0.75401260  1 -0.516967
  O  O299  1  0.80171814  0.17143685  0.68509489  1 -0.522323
  O  O300  1  0.82239680  0.30138990  0.18115960  1 -0.514972
  O  O301  1  0.77227043  0.60982266  0.25577432  1 -0.512209
  O  O302  1  0.76247495  0.35614500  0.25398494  1 -0.517213
  O  O303  1  0.84172902  0.67140730  0.18510167  1 -0.521369
  O  O304  1  0.30148906  0.69492236  0.18109974  1 -0.517032
  O  O305  1  0.60986343  0.36208576  0.25578048  1 -0.512245
  O  O306  1  0.35625816  0.62717718  0.25395469  1 -0.512246
  O  O307  1  0.67150288  0.30166939  0.18511670  1 -0.522239
  O  O308  1  0.69501608  0.82241982  0.18115639  1 -0.516247
  O  O309  1  0.36222964  0.77236166  0.25577030  1 -0.507472
  O  O310  1  0.62740905  0.76245876  0.25400324  1 -0.51571
  O  O311  1  0.30180611  0.84184127  0.18508041  1 -0.52257
  O  O312  1  0.67758962  0.80498608  0.31884133  1 -0.516168
  O  O313  1  0.72775192  0.13790114  0.24419805  1 -0.511285
  O  O314  1  0.73750306  0.87266029  0.24601744  1 -0.515994
  O  O315  1  0.65829661  0.19825873  0.31487474  1 -0.522631
  O  O316  1  0.19848744  0.67748569  0.31890678  1 -0.510914
  O  O317  1  0.89018013  0.72772491  0.24423027  1 -0.511713
  O  O318  1  0.14377006  0.73744208  0.24603487  1 -0.517041
  O  O319  1  0.82852371  0.65828655  0.31488958  1 -0.521138
  O  O320  1  0.80494604  0.19861317  0.31882288  1 -0.517468
  O  O321  1  0.13774993  0.89034651  0.24422726  1 -0.512384
  O  O322  1  0.87257622  0.14389341  0.24597569  1 -0.516458
  O  O323  1  0.19817634  0.82880129  0.31491637  1 -0.517982
