# generated using pymatgen
data_Zn4H28C28N8O5
_symmetry_space_group_name_H-M   'P 1'
_cell_length_a   11.57565243
_cell_length_b   11.57565243
_cell_length_c   26.04443936
_cell_angle_alpha   90.00000000
_cell_angle_beta   90.00000000
_cell_angle_gamma   90.00000000
_symmetry_Int_Tables_number   1
_chemical_formula_structural   Zn4H28C28N8O5
_chemical_formula_sum   'Zn8 H56 C56 N16 O10'
_cell_volume   3489.84364170
_cell_formula_units_Z   2
loop_
 _symmetry_equiv_pos_site_id
 _symmetry_equiv_pos_as_xyz
  1  'x, y, z'
loop_
 _atom_site_type_symbol
 _atom_site_label
 _atom_site_symmetry_multiplicity
 _atom_site_fract_x
 _atom_site_fract_y
 _atom_site_fract_z
 _atom_site_occupancy
 _atom_site_charge
  Zn  Zn0  1  0.90104914  0.09895086  0.79214722  1 0.760044
  Zn  Zn1  1  0.09895086  0.90104914  0.79214722  1 0.760045
  Zn  Zn2  1  0.90104914  0.90104914  0.29214722  1 0.760044
  Zn  Zn3  1  0.09895086  0.09895086  0.29214722  1 0.760045
  Zn  Zn4  1  0.09895086  0.09895086  0.70785278  1 0.760044
  Zn  Zn5  1  0.90104914  0.90104914  0.70785278  1 0.760044
  Zn  Zn6  1  0.09895086  0.90104914  0.20785278  1 0.760044
  Zn  Zn7  1  0.90104914  0.09895086  0.20785278  1 0.760044
  H  H8  1  0.68620833  0.17987254  0.84215868  1 0.124128
  H  H9  1  0.55588748  0.21802156  0.80983540  1 0.133687
  H  H10  1  0.55647857  0.10271498  0.85447891  1 0.134323
  H  H11  1  0.31379167  0.82012746  0.84215868  1 0.124128
  H  H12  1  0.44411252  0.78197844  0.80983540  1 0.133687
  H  H13  1  0.44352143  0.89728502  0.85447891  1 0.134324
  H  H14  1  0.82012746  0.68620833  0.34215868  1 0.124128
  H  H15  1  0.78197844  0.55588748  0.30983540  1 0.133687
  H  H16  1  0.89728502  0.55647857  0.35447891  1 0.134323
  H  H17  1  0.17987254  0.31379167  0.34215868  1 0.124128
  H  H18  1  0.21802156  0.44411252  0.30983540  1 0.133687
  H  H19  1  0.10271498  0.44352143  0.35447891  1 0.134324
  H  H20  1  0.31379167  0.17987254  0.65784132  1 0.124128
  H  H21  1  0.44411252  0.21802156  0.69016460  1 0.133688
  H  H22  1  0.44352143  0.10271498  0.64552109  1 0.134323
  H  H23  1  0.68620833  0.82012746  0.65784132  1 0.124128
  H  H24  1  0.55588748  0.78197844  0.69016460  1 0.133688
  H  H25  1  0.55647857  0.89728502  0.64552109  1 0.134324
  H  H26  1  0.17987254  0.68620833  0.15784132  1 0.124128
  H  H27  1  0.21802156  0.55588748  0.19016460  1 0.133688
  H  H28  1  0.10271498  0.55647857  0.14552109  1 0.134323
  H  H29  1  0.82012746  0.31379167  0.15784132  1 0.124128
  H  H30  1  0.78197844  0.44411252  0.19016460  1 0.133688
  H  H31  1  0.89728502  0.44352143  0.14552109  1 0.134324
  H  H32  1  0.31379167  0.82012746  0.15784132  1 0.124127
  H  H33  1  0.44411252  0.78197844  0.19016460  1 0.133688
  H  H34  1  0.44352143  0.89728502  0.14552109  1 0.134324
  H  H35  1  0.68620833  0.17987254  0.15784132  1 0.124127
  H  H36  1  0.55588748  0.21802156  0.19016460  1 0.133688
  H  H37  1  0.55647857  0.10271498  0.14552109  1 0.134325
  H  H38  1  0.17987254  0.31379167  0.65784132  1 0.124127
  H  H39  1  0.21802156  0.44411252  0.69016460  1 0.133688
  H  H40  1  0.10271498  0.44352143  0.64552109  1 0.134324
  H  H41  1  0.82012746  0.68620833  0.65784132  1 0.124127
  H  H42  1  0.78197844  0.55588748  0.69016460  1 0.133688
  H  H43  1  0.89728502  0.55647857  0.64552109  1 0.134325
  H  H44  1  0.68620833  0.82012746  0.34215868  1 0.124127
  H  H45  1  0.55588748  0.78197844  0.30983540  1 0.133689
  H  H46  1  0.55647857  0.89728502  0.35447891  1 0.134324
  H  H47  1  0.31379167  0.17987254  0.34215868  1 0.124127
  H  H48  1  0.44411252  0.21802156  0.30983540  1 0.133689
  H  H49  1  0.44352143  0.10271498  0.35447891  1 0.134325
  H  H50  1  0.82012746  0.31379167  0.84215868  1 0.124127
  H  H51  1  0.78197844  0.44411252  0.80983540  1 0.133689
  H  H52  1  0.89728502  0.44352143  0.85447891  1 0.134324
  H  H53  1  0.17987254  0.68620833  0.84215868  1 0.124127
  H  H54  1  0.21802156  0.55588748  0.80983540  1 0.133689
  H  H55  1  0.10271498  0.55647857  0.85447891  1 0.134325
  H  H56  1  0.86914233  0.13085767  0.95166244  1 0.107763
  H  H57  1  0.13085767  0.86914233  0.95166244  1 0.107763
  H  H58  1  0.86914233  0.86914233  0.45166244  1 0.107763
  H  H59  1  0.13085767  0.13085767  0.45166244  1 0.107763
  H  H60  1  0.13085767  0.13085767  0.54833756  1 0.10776
  H  H61  1  0.86914233  0.86914233  0.54833756  1 0.10776
  H  H62  1  0.13085767  0.86914233  0.04833756  1 0.10776
  H  H63  1  0.86914233  0.13085767  0.04833756  1 0.10776
  C  C64  1  0.63744658  0.06299686  0.78233583  1 0.202023
  C  C65  1  0.60761154  0.14519744  0.82429397  1 -0.413876
  C  C66  1  0.36255342  0.93700314  0.78233583  1 0.202023
  C  C67  1  0.39238846  0.85480256  0.82429397  1 -0.413877
  C  C68  1  0.93700314  0.63744658  0.28233583  1 0.202023
  C  C69  1  0.85480256  0.60761154  0.32429397  1 -0.413876
  C  C70  1  0.06299686  0.36255342  0.28233583  1 0.202023
  C  C71  1  0.14519744  0.39238846  0.32429397  1 -0.413877
  C  C72  1  0.36255342  0.06299686  0.71766417  1 0.202022
  C  C73  1  0.39238846  0.14519744  0.67570603  1 -0.413877
  C  C74  1  0.63744658  0.93700314  0.71766417  1 0.202022
  C  C75  1  0.60761154  0.85480256  0.67570603  1 -0.413877
  C  C76  1  0.06299686  0.63744658  0.21766417  1 0.202022
  C  C77  1  0.14519744  0.60761154  0.17570603  1 -0.413877
  C  C78  1  0.93700314  0.36255342  0.21766417  1 0.202022
  C  C79  1  0.85480256  0.39238846  0.17570603  1 -0.413877
  C  C80  1  0.36255342  0.93700314  0.21766417  1 0.202023
  C  C81  1  0.39238846  0.85480256  0.17570603  1 -0.413877
  C  C82  1  0.63744658  0.06299686  0.21766417  1 0.202023
  C  C83  1  0.60761154  0.14519744  0.17570603  1 -0.413877
  C  C84  1  0.06299686  0.36255342  0.71766417  1 0.202023
  C  C85  1  0.14519744  0.39238846  0.67570603  1 -0.413877
  C  C86  1  0.93700314  0.63744658  0.71766417  1 0.202023
  C  C87  1  0.85480256  0.60761154  0.67570603  1 -0.413877
  C  C88  1  0.63744658  0.93700314  0.28233583  1 0.202022
  C  C89  1  0.60761154  0.85480256  0.32429397  1 -0.413877
  C  C90  1  0.36255342  0.06299686  0.28233583  1 0.202022
  C  C91  1  0.39238846  0.14519744  0.32429397  1 -0.413877
  C  C92  1  0.93700314  0.36255342  0.78233583  1 0.202022
  C  C93  1  0.85480256  0.39238846  0.82429397  1 -0.413877
  C  C94  1  0.06299686  0.63744658  0.78233583  1 0.202022
  C  C95  1  0.14519744  0.60761154  0.82429397  1 -0.413877
  C  C96  1  0.92602462  0.07397538  0.97330146  1 -0.095702
  C  C97  1  0.07397538  0.92602462  0.97330146  1 -0.095702
  C  C98  1  0.92602462  0.92602462  0.47330146  1 -0.095702
  C  C99  1  0.07397538  0.07397538  0.47330146  1 -0.095702
  C  C100  1  0.07397538  0.07397538  0.52669854  1 -0.095684
  C  C101  1  0.92602462  0.92602462  0.52669854  1 -0.095684
  C  C102  1  0.07397538  0.92602462  0.02669854  1 -0.095684
  C  C103  1  0.92602462  0.07397538  0.02669854  1 -0.095684
  C  C104  1  0.00000000  -0.00000000  0.88854420  1 0.596044
  C  C105  1  0.00000000  -0.00000000  0.94615164  1 -0.032123
  C  C106  1  0.00000000  -0.00000000  0.38854420  1 0.596044
  C  C107  1  0.00000000  -0.00000000  0.44615164  1 -0.032123
  C  C108  1  0.00000000  -0.00000000  0.61145580  1 0.596044
  C  C109  1  0.00000000  -0.00000000  0.55384836  1 -0.032127
  C  C110  1  0.00000000  -0.00000000  0.11145580  1 0.596044
  C  C111  1  0.00000000  -0.00000000  0.05384836  1 -0.032127
  C  C112  1  0.56328121  -0.00000000  0.75000000  1 -0.140906
  C  C113  1  0.43671879  -0.00000000  0.75000000  1 -0.140906
  C  C114  1  0.00000000  0.56328121  0.25000000  1 -0.140906
  C  C115  1  0.00000000  0.43671879  0.25000000  1 -0.140906
  C  C116  1  0.43671879  -0.00000000  0.25000000  1 -0.140906
  C  C117  1  0.56328121  -0.00000000  0.25000000  1 -0.140906
  C  C118  1  0.00000000  0.43671879  0.75000000  1 -0.140906
  C  C119  1  0.00000000  0.56328121  0.75000000  1 -0.140906
  N  N120  1  0.74797368  0.03877078  0.76993428  1 -0.260062
  N  N121  1  0.25202632  0.96122922  0.76993428  1 -0.260062
  N  N122  1  0.96122922  0.74797368  0.26993428  1 -0.260062
  N  N123  1  0.03877078  0.25202632  0.26993428  1 -0.260062
  N  N124  1  0.25202632  0.03877078  0.73006572  1 -0.260051
  N  N125  1  0.74797368  0.96122922  0.73006572  1 -0.260051
  N  N126  1  0.03877078  0.74797368  0.23006572  1 -0.260051
  N  N127  1  0.96122922  0.25202632  0.23006572  1 -0.260051
  N  N128  1  0.25202632  0.96122922  0.23006572  1 -0.260062
  N  N129  1  0.74797368  0.03877078  0.23006572  1 -0.260062
  N  N130  1  0.03877078  0.25202632  0.73006572  1 -0.260062
  N  N131  1  0.96122922  0.74797368  0.73006572  1 -0.260062
  N  N132  1  0.74797368  0.96122922  0.26993428  1 -0.260051
  N  N133  1  0.25202632  0.03877078  0.26993428  1 -0.260051
  N  N134  1  0.96122922  0.25202632  0.76993428  1 -0.260051
  N  N135  1  0.03877078  0.74797368  0.76993428  1 -0.260051
  O  O136  1  0.93037149  0.06962851  0.86651273  1 -0.536387
  O  O137  1  0.06962851  0.93037149  0.86651273  1 -0.536387
  O  O138  1  0.93037149  0.93037149  0.36651273  1 -0.536387
  O  O139  1  0.06962851  0.06962851  0.36651273  1 -0.536387
  O  O140  1  0.06962851  0.06962851  0.63348727  1 -0.536387
  O  O141  1  0.93037149  0.93037149  0.63348727  1 -0.536387
  O  O142  1  0.06962851  0.93037149  0.13348727  1 -0.536387
  O  O143  1  0.93037149  0.06962851  0.13348727  1 -0.536387
  O  O144  1  0.00000000  -0.00000000  0.75000000  1 -0.868948
  O  O145  1  0.00000000  -0.00000000  0.25000000  1 -0.868948
