# generated using pymatgen
data_ScH6(CO)4
_symmetry_space_group_name_H-M   'P 1'
_cell_length_a   7.91124182
_cell_length_b   7.91116458
_cell_length_c   12.30985950
_cell_angle_alpha   90.00352599
_cell_angle_beta   89.99642293
_cell_angle_gamma   119.98485881
_symmetry_Int_Tables_number   1
_chemical_formula_structural   ScH6(CO)4
_chemical_formula_sum   'Sc3 H18 C12 O12'
_cell_volume   667.32139204
_cell_formula_units_Z   3
loop_
 _symmetry_equiv_pos_site_id
 _symmetry_equiv_pos_as_xyz
  1  'x, y, z'
loop_
 _atom_site_type_symbol
 _atom_site_label
 _atom_site_symmetry_multiplicity
 _atom_site_fract_x
 _atom_site_fract_y
 _atom_site_fract_z
 _atom_site_occupancy
 _atom_site_charge
  Sc  Sc0  1  0.38516949  -0.00004797  0.66662044  1 1.212106
  Sc  Sc1  1  -0.00005254  0.38516842  0.33338010  1 1.212177
  Sc  Sc2  1  0.61464952  0.61464954  0.00000156  1 1.212581
  H  H3  1  0.36141259  0.38793796  0.59821998  1 0.138734
  H  H4  1  0.25212890  0.45242104  0.70416981  1 0.163989
  H  H5  1  0.49045887  0.62548990  0.66249655  1 0.143613
  H  H6  1  0.61214235  0.97335259  0.26486970  1 0.13884
  H  H7  1  0.54765576  0.79964651  0.37082372  1 0.164064
  H  H8  1  0.37467866  0.86513040  0.32922267  1 0.144395
  H  H9  1  0.02662798  0.63875582  0.93153897  1 0.138926
  H  H10  1  0.20045195  0.74802030  0.03743686  1 0.164436
  H  H11  1  0.13506923  0.50960665  0.99581114  1 0.144333
  H  H12  1  0.38793620  0.36141189  0.40177691  1 0.138724
  H  H13  1  0.45241909  0.25212705  0.29582789  1 0.16396
  H  H14  1  0.62548363  0.49045940  0.33750000  1 0.143675
  H  H15  1  0.97335456  0.61214413  0.73512994  1 0.13893
  H  H16  1  0.79964734  0.54765580  0.62917680  1 0.164075
  H  H17  1  0.86512719  0.37467528  0.67077960  1 0.144429
  H  H18  1  0.63875545  0.02662329  0.06846085  1 0.138977
  H  H19  1  0.74801959  0.20044806  0.96256215  1 0.164427
  H  H20  1  0.50960959  0.13506925  0.00418989  1 0.144335
  C  C21  1  0.26233729  0.58720118  0.55263333  1 0.760477
  C  C22  1  0.34897214  0.50862073  0.63307980  1 -0.551965
  C  C23  1  0.41267113  0.67513399  0.21931157  1 0.761376
  C  C24  1  0.49144198  0.84034233  0.29976201  1 -0.552339
  C  C25  1  0.32486428  0.73757878  0.88589213  1 0.76026
  C  C26  1  0.15971551  0.65111662  0.96637069  1 -0.553178
  C  C27  1  0.58719828  0.26233796  0.44736677  1 0.760448
  C  C28  1  0.50861662  0.34897165  0.36691748  1 -0.552005
  C  C29  1  0.67513668  0.41267445  0.78069160  1 0.761297
  C  C30  1  0.84034271  0.49144205  0.70023885  1 -0.552472
  C  C31  1  0.73758067  0.32486149  0.11410646  1 0.760285
  C  C32  1  0.65111814  0.15971326  0.03362954  1 -0.553222
  O  O33  1  0.27970886  0.75446384  0.56750454  1 -0.637367
  O  O34  1  0.17178852  0.48229056  0.47096163  1 -0.623888
  O  O35  1  0.24541416  0.52538578  0.23426063  1 -0.637925
  O  O36  1  0.51737992  0.68940310  0.13755163  1 -0.624317
  O  O37  1  0.47474654  0.72022286  0.90081883  1 -0.637238
  O  O38  1  0.31045855  0.82797697  0.80416315  1 -0.623719
  O  O39  1  0.75445609  0.27970388  0.43249182  1 -0.637378
  O  O40  1  0.48229373  0.17180141  0.52904028  1 -0.623789
  O  O41  1  0.52539078  0.24541900  0.76574269  1 -0.637829
  O  O42  1  0.68941106  0.51738599  0.86245055  1 -0.624275
  O  O43  1  0.72022681  0.47474847  0.09918211  1 -0.637222
  O  O44  1  0.82798416  0.31045834  0.19583639  1 -0.623739
